!
! ===== gasoline 5-components surrogate reduced mechanism 2.0 (#190128a) =====
!       with ethanol, ETBE, and NOx
!
! Fuel: nC7H16(n-heptane)
!       iC8H18(isooctane, 2,2,4-trimethylpentane)
!       C6H5CH3(toluene)
!       cC7H14(methylcyclohexane)
!       eC8H16(isooctene, 2,4,4-trimethyl-1-pentene)
!       C2H5OH(ethanol)
!       ETBE(ethyl-t-butylether)
!
THERMO
   300.000  1000.000  5000.000
!
!n-heptane mechanism
!
nC7H16            thgen C   7H  16          G   300.000  5000.000 1391.00      1 !nC7H16
 2.22177923E+01 3.47632604E-02-1.18388528E-05 1.83265875E-09-1.06109932E-13    2
-3.42772591E+04-9.23217457E+01-1.26871064E+00 8.54348955E-02-5.25290944E-05    3
 1.62884286E-08-2.02214778E-12-2.56586562E+04 3.53739478E+01                   4
nC7H15            thgen C   7H  15          G   300.000  5000.000 1382.00      1 !nC7H15c
 2.16358383E+01 3.23340841E-02-1.09280566E-05 1.68368616E-09-9.71844623E-14    2
-1.05866176E+04-8.52122680E+01-3.88848544E-02 7.56801544E-02-4.07609055E-05    3
 9.33601461E-09-4.94482163E-13-2.35589863E+03 3.37383486E+01                   4
nC7H15OO          thgen C   7H  15O   2     G   300.000  5000.000 1390.00      1 !nC7H15OOc
 2.60523050E+01 3.43839001E-02-1.18715005E-05 1.85452176E-09-1.08053193E-13    2
-2.94761134E+04-1.05463689E+02 3.59006547E-01 9.42245153E-02-6.66804487E-05    3
 2.54724302E-08-4.13086673E-12-2.03728288E+04 3.28613586E+01                   4
nC7H14OOH         thgen C   7H  15O   2     G   300.000  5000.000 1389.00      1 !C7H14OOHk
 2.74573337E+01 3.26265036E-02-1.12386517E-05 1.75329980E-09-1.02071273E-13    2
-2.48239746E+04-1.11231599E+02 8.68010527E-01 9.24071780E-02-6.23385915E-05    3
 2.16105189E-08-3.07642818E-12-1.53160279E+04 3.24663802E+01                   4
nHOOC7H14OO       thgen C   7H  15O   4     G   300.000  5000.000 1390.00      1 !HOOC7H14OOk
 3.28360162E+01 3.32763432E-02-1.15831469E-05 1.81955309E-09-1.06432285E-13    2
-4.40287923E+04-1.36795390E+02 1.41185977E+00 1.10703712E-01-8.70872996E-05    3
 3.63452156E-08-6.27852573E-12-3.33720367E+04 3.07923596E+01                   4
nC7KET            thgen C   7H  14O   3     G   300.000  5000.000 1386.00      1 !COC6H13OOHg
 2.86566981E+01 3.21565793E-02-1.11959188E-05 1.75889497E-09-1.02888014E-13    2
-6.19744506E+04-1.16883589E+02 2.32186256E+00 9.45240193E-02-6.99211946E-05    3
 2.79874447E-08-4.74465002E-12-5.27085951E+04 2.45959611E+01                   4
nC5H9O            thgen C   5H   9O   1     G   300.000  5000.000 1379.00      1 !C4H9COa
 1.64012943E+01 2.04003752E-02-6.93873682E-06 1.07367226E-09-6.21614279E-14    2
-1.67278682E+04-5.71188765E+01 2.36413323E+00 4.95786327E-02-2.90721987E-05    3
 8.29294303E-09-9.03229011E-13-1.14543903E+04 1.96153510E+01                   4
nC5H11            thgen C   5H  11          G   300.000  5000.000 1390.00      1 !C5H11a
 1.52896647E+01 2.39755267E-02-8.18341222E-06 1.26861432E-09-7.35224954E-14    2
-9.72919304E+02-5.44277267E+01 5.79609854E-02 5.60823625E-02-3.31785211E-05    3
 9.79021087E-09-1.14223950E-12 4.71440753E+03 2.86918308E+01                   4
nC5H10            thgen C   5H  10          G   300.000  5000.000 1392.00      1 !C5H10a
 1.45837757E+01 2.24057409E-02-7.63231344E-06 1.18163580E-09-6.84206955E-14    2
-1.00871422E+04-5.23577225E+01-1.07237458E+00 5.74872482E-02-3.75589723E-05    3
 1.28055098E-08-1.81083209E-12-4.46482377E+03 3.23144603E+01                   4
nC5H9             thgen C   5H   9          G   300.000  5000.000 1388.00      1 !aC5H9a
 1.45041351E+01 2.05083694E-02-7.10654706E-06 1.11295524E-09-6.49627735E-14    2
 6.79087910E+03-5.34346369E+01-1.04797696E+00 5.41768083E-02-3.45284353E-05    3
 1.11684416E-08-1.47643393E-12 1.25116524E+04 3.11242264E+01                   4
nC7H15O           thgen C   7H  15O   1     G   300.000  5000.000 1395.00      1 !nC7H15Oc
 2.43050592E+01 3.31299633E-02-1.13048045E-05 1.75223806E-09-1.01542653E-13    2
-2.88617678E+04-9.94127348E+01-1.08852878E+00 9.23114953E-02-6.44357297E-05    3
 2.36757686E-08-3.61001227E-12-1.99930305E+04 3.70751744E+01                   4
nC7H15OOH         thgen C   7H  16O   2     G   300.000  5000.000 1390.00      1 !nC7H15OOHc
 2.85696040E+01 3.45362690E-02-1.19635215E-05 1.87319578E-09-1.09321273E-13    2
-4.87912635E+04-1.20812558E+02-5.93636262E-01 1.02847108E-01-7.42877994E-05    3
 2.83328117E-08-4.51137547E-12-3.85781122E+04 3.59212486E+01                   4
!
!isooctane mechanism
!
iC8H18            thgen C   8H  18          G   300.000  5000.000 1397.00      1 !iC8H18
 2.70920030E+01 3.79052142E-02-1.29375691E-05 2.00580387E-09-1.16261109E-13    2
-4.27201269E+04-1.22972430E+02-4.20184373E+00 1.11525135E-01-7.94018605E-05    3
 2.94327964E-08-4.47928170E-12-3.19113977E+04 4.48981238E+01                   4
iC8H17            thgen C   8H  17          G   300.000  5000.000 1393.00      1 !iC8H17b
 2.64552622E+01 3.55440069E-02-1.20528460E-05 1.86101603E-09-1.07579175E-13    2
-1.90011197E+04-1.16235434E+02-3.08982602E+00 1.02313728E-01-6.84786443E-05    3
 2.30138816E-08-3.06907219E-12-8.59119871E+03 4.31119876E+01                   4
iC8H17OO          thgen C   8H  17O   2     G   300.000  5000.000 1394.00      1 !iC8H17OOb
 3.09355421E+01 3.74105002E-02-1.29073110E-05 2.01549577E-09-1.17402236E-13    2
-3.78977875E+04-1.36798535E+02-3.06443818E+00 1.22613369E-01-9.71774181E-05    3
 4.08857690E-08-7.08508839E-12-2.65537797E+04 4.39441843E+01                   4
iC8H16OOH         thgen C   8H  17O   2     G   300.000  5000.000 1395.00      1 !C8H16OOHg
 3.29642834E+01 3.54528218E-02-1.22763166E-05 1.92179615E-09-1.12146066E-13    2
-3.21060047E+04-1.46610031E+02-3.22291546E+00 1.26638844E-01-1.02432626E-04    3
 4.32601240E-08-7.45097857E-12-2.01505706E+04 4.54684584E+01                   4
iHOOC8H16OO       thgen C   8H  17O   4     G   300.000  5000.000 1393.00      1 !HOOC8H16OOg
 3.68921902E+01 3.70313467E-02-1.28759800E-05 2.02124832E-09-1.18176812E-13    2
-5.00657935E+04-1.62652799E+02-1.32886825E+00 1.32867168E-01-1.07401821E-04    3
 4.53903634E-08-7.84223845E-12-3.73590684E+04 4.04443512E+01                   4
iC8KET            thgen C   8H  16O   3     G   300.000  5000.000 1393.00      1 !COC7H15OOHc
 3.37013249E+01 3.51404946E-02-1.22403555E-05 1.92384697E-09-1.12581529E-13    2
-6.78193788E+04-1.48813885E+02-3.69054288E+00 1.27292525E-01-1.00891530E-04    3
 4.14152491E-08-6.93785042E-12-5.52794020E+04 5.03601636E+01                   4
iC7H13O           thgen C   7H  13O   1     G   300.000  5000.000 1394.00      1 !C6H13vCOb
 2.42679982E+01 2.86333840E-02-9.88040093E-06 1.54317611E-09-8.99095196E-14    2
-3.05478683E+04-1.04458208E+02-1.80946874E+00 9.01521048E-02-6.57659227E-05    3
 2.48425015E-08-3.84914862E-12-2.15441753E+04 3.53937659E+01                   4
iC7H14            thgen C   7H  14          G   300.000  5000.000 1395.00      1 !C7H14b
 2.24912357E+01 2.96685986E-02-1.00455975E-05 1.54950613E-09-8.95071232E-14    2
-2.24019669E+04-9.74583681E+01-3.30938880E+00 9.05113458E-02-6.47606480E-05    3
 2.38759306E-08-3.57718690E-12-1.35517265E+04 4.08164660E+01                   4
iC7H13            thgen C   7H  13          G   300.000  5000.000 1396.00      1!aC7H13b
 2.26058410E+01 2.77383394E-02-9.53221699E-06 1.48480972E-09-8.63512957E-14    2
-4.56407218E+03-9.91382375E+01-3.87510891E+00 9.11860004E-02-6.79894558E-05    3
 2.61194736E-08-4.08578594E-12 4.44229599E+03 4.24657120E+01                   4
iC4H9             thgen C   4H   9          G   300.000  5000.000 1371.00      1 !tC4H9
 1.06256766E+01 2.10524192E-02-7.24699414E-06 1.12975765E-09-6.57275211E-14    2
 8.98003085E+01-3.28154286E+01 3.00651244E+00 2.87404049E-02-2.86301425E-06    3
-5.92506428E-09 1.92085423E-12 3.85126136E+03 1.18650543E+01                   4
iC4H8             thgen C   4H   8          G   300.000  5000.000 1388.00      1 !iC4H8
 1.12250420E+01 1.81815694E-02-6.20445208E-06 9.61623502E-10-5.57203448E-14    2
-7.69990589E+03-3.73290465E+01 9.39096232E-01 3.90507649E-02-2.16375684E-05    3
 5.86955550E-09-6.13931254E-13-3.74834503E+03 1.91392713E+01                   4
iC4H7             thgen C   4H   7          G   300.000  5000.000 1386.00      1 !iC4H7a
 1.20755413E+01 1.53838035E-02-5.34471115E-06 8.38457076E-10-4.89970916E-14    2
 1.02789716E+04-4.16938641E+01 2.33005612E-01 4.23571985E-02-2.93968519E-05    3
 1.09284827E-08-1.73005596E-12 1.45421013E+04 2.22900171E+01                   4
iC8H17O           thgen C   8H  17O   1     G   300.000  5000.000 1400.00      1 !iC8H17Ob
 2.92000599E+01 3.62425322E-02-1.23912392E-05 1.92327737E-09-1.11564645E-13    2
-3.73134757E+04-1.30872815E+02-3.96943499E+00 1.18162148E-01-9.09286549E-05    3
 3.65727157E-08-6.01087592E-12-2.62535880E+04 4.56667705E+01                   4
iC8H17OOH         thgen C   8H  18O   2     G   300.000  5000.000 1395.00      1 !iC8H17OOHb
 3.33786590E+01 3.76091799E-02-1.30114163E-05 2.03563516E-09-1.18738112E-13    2
-5.71706588E+04-1.51690420E+02-3.94285031E+00 1.31014400E-01-1.04685507E-04    3
 4.37791373E-08-7.48600810E-12-4.47722798E+04 4.66425335E+01                   4
!
!toluene mechanism
!
C6H5CH3    5/19/93 THERMC   7H   8    0    0G   300.000  5000.000 1389.000     1
 1.63091542E+01 2.25331612E-02-7.84281827E-06 1.23200630E-09-7.20675043E-14    2
-2.75804095E+03-6.66759774E+01-4.08982289E+00 6.86477374E-02-4.74716566E-05    3
 1.67001205E-08-2.39578007E-12 4.49937542E+03 4.34582591E+01                   4
C6H5CH2           T08/90C   7H   7    0    0G   200.000  6000.000 1000.        1
 0.14043980E+02 0.23493873E-01-0.85375367E-05 0.13890841E-08-0.83614420E-13    2
 0.18564203E+05-0.51665589E+02 0.48111540E+00 0.38512832E-01 0.32861492E-04    3
-0.76972721E-07 0.35423068E-10 0.23307027E+05 0.23548820E+02                   4
C6H5CH2OO  3/ 4/94 THERMC   7H   7O   2    0G   300.000  5000.000 1389.000     1
 2.18946260E+01 2.02701494E-02-7.14525361E-06 1.13208570E-09-6.66220534E-14    2
 3.93272947E+03-8.95685129E+01-3.77863659E+00 8.29484718E-02-6.64288143E-05    3
 2.69504875E-08-4.41844689E-12 1.25603231E+04 4.73269747E+01                   4
C6H5CH2O   4/14/94 THERMC   7H   7O   1    0G   300.000  5000.000 1392.000     1
 1.78843033E+01 2.09011735E-02-7.21832713E-06 1.12839851E-09-6.57955260E-14    2
 4.93182818E+03-7.01304667E+01-4.77736690E+00 7.51049308E-02-5.68532831E-05    3
 2.18290029E-08-3.38134298E-12 1.26234438E+04 5.10429366E+01                   4
C6H5CH2OOH 3/ 4/94 THERMC   7H   8O   2    0G   300.000  5000.000 1390.000     1
 2.21951256E+01 2.19901041E-02-7.70452728E-06 1.21574282E-09-7.13427270E-14    2
-1.43966742E+04-9.07483698E+01-3.39515159E+00 8.45306884E-02-6.70634097E-05    3
 2.72113250E-08-4.48289693E-12-5.78730853E+03 4.57078979E+01                   4
C6H5CHO    2/25/94 THERMC   7H   6O   1    0G   300.000  5000.000 1382.000     1
 1.75038056E+01 1.87911370E-02-6.51897523E-06 1.02244104E-09-5.97629759E-14    2
-1.31835944E+04-6.88975598E+01-2.70517666E+00 6.46821582E-02-4.57286415E-05    3
 1.60322213E-08-2.23734122E-12-6.07344750E+03 4.00414090E+01                   4
C6H5CO     2/25/94 THERMC   7H   5O   1    0G   300.000  5000.000 1382.000     1
 1.77196103E+01 1.59990428E-02-5.54532150E-06 8.69582681E-10-5.08335220E-14    2
 4.57408086E+03-6.82553109E+01-1.93001550E+00 6.18799970E-02-4.60916515E-05    3
 1.70133701E-08-2.49869948E-12 1.13352170E+04 3.71779131E+01                   4
C6H6       5/2/91  THERMC   6H   6    0    0G   300.000  5000.000 1390.000     1
 1.38672847E+01 1.74152368E-02-6.08383755E-06 9.58140923E-10-5.61503296E-14    2
 2.59989001E+03-5.68524653E+01-5.18689051E+00 6.30511006E-02-4.82874623E-05    3
 1.89015490E-08-3.01017276E-12 9.09950343E+03 4.50744831E+01                   4
C6H5  PHENYL RAD  T04/02C   6H   5    0    0G   200.000  6000.000 1000.        1
 1.08444762E+01 1.73212473E-02-6.29233249E-06 1.02369961E-09-6.16216828E-14    2
 3.55598475E+04-3.53735134E+01 2.10306633E-01 2.04745507E-02 5.89743006E-05    3
-1.01534255E-07 4.47105660E-11 3.95468722E+04 2.52910455E+01                   4
CY13PD     5/ 2/91 THERMC   5H   6    0    0G   300.000  5000.000 1400.000     1
 1.26467216E+01 1.54049138E-02-5.27976433E-06 8.21090156E-10-4.77026129E-14    2
 9.23782306E+03-4.78698742E+01-4.88591070E+00 6.00252758E-02-4.92777757E-05    3
 2.06970535E-08-3.49397891E-12 1.49171729E+04 4.49199697E+01                   4
CY13PD5J   5/ 2/91 THERMC   5H   5    0    0G   300.000  5000.000 1403.000     1
 1.35569720E+01 1.22914133E-02-4.25209533E-06 6.65536380E-10-3.88428452E-14    2
 2.21734660E+04-5.31109915E+01-5.44117341E+00 6.32470657E-02-5.71657025E-05    3
 2.57052547E-08-4.55247216E-12 2.80395761E+04 4.64652136E+01                   4
C3H3               82489C   3H   3          G  0300.00   4000.00  1000.00      1
 0.08831047E+02 0.04357195E-01-0.04109067E-05-0.02368723E-08 0.04376520E-12    2
 0.03847420E+06-0.02177919E+03 0.04754200E+02 0.01108028E+00 0.02793323E-05    3
-0.05479212E-07 0.01949629E-10 0.03988883E+06 0.05854549E+01                   4
!
!methylcyclohexane mechanism
!
cC7H14            thgen C   7H  14          G   300.000  5000.000 1381.00      1 !cC7H14
 2.19840204E+01 3.32380059E-02-1.15957333E-05 1.82472595E-09-1.06879789E-13    2
-3.11511383E+04-1.03389711E+02-8.80478032E+00 9.64813650E-02-5.70038242E-05    3
 1.45187797E-08-1.03711202E-12-1.96827040E+04 6.48932350E+01                   4
cC7H13            thgen C   7H  13          G   300.000  5000.000 2030.00      1 !cC7H13b
 1.73207836E+01 3.61141652E-02-1.30439781E-05 2.10916023E-09-1.26103118E-13    2
-5.14737051E+03-7.28725671E+01-8.53999379E+00 9.19143404E-02-5.46351180E-05    3
 1.44861541E-08-1.27786372E-12 3.74740613E+03 6.68766192E+01                   4
cC7H13OO          thgen C   7H  13O   2     G   300.000  5000.000 1383.00      1 !cC7H13OOb
 2.58828664E+01 3.24515646E-02-1.14133017E-05 1.80549940E-09-1.06134365E-13    2
-2.63068215E+04-1.17406447E+02-6.82302738E+00 1.03606532E-01-6.86655838E-05    3
 2.19783080E-08-2.71878174E-12-1.44472419E+04 6.00706463E+01                   4
cC7H12OOH         thgen C   7H  13O   2     G   300.000  5000.000 1376.00      1 !C7H12OOHh
 2.78152501E+01 2.99552701E-02-1.04672797E-05 1.64979319E-09-9.67679140E-14    2
-2.18544801E+04-1.26157336E+02-7.07160497E+00 1.04988599E-01-6.83597033E-05    3
 2.01393794E-08-2.02636066E-12-9.27494093E+03 6.32003890E+01                   4
cHOOC7H12OO       thgen C   7H  13O   4     G   300.000  5000.000 1385.00      1 !HOOC7H12OOh
 3.24359905E+01 3.14414191E-02-1.11369670E-05 1.77017468E-09-1.04402906E-13    2
-4.07804495E+04-1.47429015E+02-6.22592286E+00 1.21307897E-01-9.07788289E-05    3
 3.38731075E-08-5.08350638E-12-2.73529341E+04 6.03011735E+01                   4
cC7KET            thgen C   7H  12O   3     G   300.000  5000.000 1382.00      1 !COC6H11OOHb
 2.90494395E+01 2.96813167E-02-1.05378646E-05 1.67752094E-09-9.90435852E-14    2
-5.89174749E+04-1.32265877E+02-6.95588601E+00 1.10749710E-01-7.90503580E-05    3
 2.75540210E-08-3.79400934E-12-4.61681037E+04 6.20917696E+01                   4
cC5H9O            thgen C   5H   9O   1     G   300.000  5000.000 1381.00      1 !COC4H9a
 1.57988347E+01 2.12827311E-02-7.31942236E-06 1.14060639E-09-6.63493634E-14    2
-1.42791012E+04-5.33611872E+01 2.00076161E+00 4.96142890E-02-2.87733475E-05    3
 8.28828462E-09-9.56380697E-13-9.01070400E+03 2.22729746E+01                   4
cC5H9             thgen C   5H   9          G   300.000  5000.000 1394.00      1 !C5H9b
 1.41752801E+01 2.04779446E-02-7.02572529E-06 1.09287233E-09-6.34867746E-14    2
 1.39260083E+04-4.87967341E+01-8.94603026E-01 5.54921888E-02-3.86508855E-05    3
 1.43640011E-08-2.24416041E-12 1.92364207E+04 3.23013102E+01                   4
cC5H8             thgen C   5H   8          G   300.000  5000.000 1395.00      1 !C5H8a
 1.39074309E+01 1.85210106E-02-6.33684518E-06 9.83875426E-10-5.70799914E-14    2
 2.34302034E+03-4.99190566E+01-1.22276621E+00 5.69845523E-02-4.51783492E-05    3
 1.93270029E-08-3.42018951E-12 7.35884475E+03 3.03553380E+01                   4
cC7H13O           thgen C   7H  13O   1     G   300.000  5000.000 1388.00      1 !cC7H13Ob
 2.40964362E+01 3.15749576E-02-1.10504486E-05 1.74251719E-09-1.02209064E-13    2
-2.57490604E+04-1.11321218E+02-8.54909439E+00 1.03014543E-01-6.83837137E-05    3
 2.15774767E-08-2.55316379E-12-1.40283641E+04 6.55531705E+01                   4
cC7H13OOH         thgen C   7H  14O   2     G   300.000  5000.000 1384.00      1 !cC7H13OOHb
 2.83427413E+01 3.26250662E-02-1.15063030E-05 1.82365386E-09-1.07344490E-13    2
-4.55812707E+04-1.32384690E+02-7.79193906E+00 1.12463680E-01-7.68665649E-05    3
 2.52919293E-08-3.20950773E-12-3.26536990E+04 6.31758958E+01                   4
!
!isooctene mechanism
!
eC8H16            thgen C   8H  16          G   300.000  5000.000 1397.00      1 !eC8H16
 2.60132776E+01 3.39482112E-02-1.15306026E-05 1.78201502E-09-1.03068004E-13    2
-2.73175146E+04-1.15361640E+02-3.27162628E+00 1.04193530E-01-7.63854364E-05    3
 2.91905226E-08-4.56718649E-12-1.73598137E+04 4.12168511E+01                   4
eC8H15            thgen C   8H  15          G   300.000  5000.000 1397.00      1 !eaC8H15b
 2.66288804E+01 3.14958851E-02-1.08179628E-05 1.68438432E-09-9.79254294E-14    2
-9.23331448E+03-1.19073294E+02-3.93976690E+00 1.07543478E-01-8.45281494E-05    3
 3.46583065E-08-5.79957666E-12 9.21221132E+02 4.34580164E+01                   4
eC8H15OO          thgen C   8H  15O   2     G   300.000  5000.000 1392.00      1 !eC8H15OOd
 2.90852179E+01 3.43564714E-02-1.18639273E-05 1.85367940E-09-1.08022452E-13    2
-1.94456006E+04-1.24018612E+02-9.87958291E-02 1.04002926E-01-7.68147093E-05    3
 3.00490956E-08-4.89183724E-12-9.36633736E+03 3.23487434E+01                   4
eC8H14OOH         thgen C   8H  15O   2     G   300.000  5000.000 1391.00      1 !C8H14OOHc
 3.16602056E+01 3.22029676E-02-1.12267688E-05 1.76557486E-09-1.03362557E-13    2
-2.18762799E+04-1.41077606E+02-1.36211106E+00 1.10895295E-01-8.37293860E-05    3
 3.25331133E-08-5.16866697E-12-1.05484097E+04 3.57495801E+01                   4
eHOOC8H14OO       thgen C   8H  15O   4     G   300.000  5000.000 1392.00      1 !HOOC8H14OOc
 3.61976063E+01 3.30905585E-02-1.15479963E-05 1.81724800E-09-1.06432139E-13    2
-3.36427043E+04-1.57572177E+02 2.45014587E-02 1.24963667E-01-1.03601227E-04    3
 4.47520642E-08-7.87045144E-12-2.17211775E+04 3.42493933E+01                   4
eC8KET            thgen C   8H  14O   3     G   300.000  5000.000 1394.00      1 !CHOC7H12OOHb
 3.35719690E+01 3.04256159E-02-1.05794489E-05 1.66095041E-09-9.71251013E-14    2
-5.19075855E+04-1.48084945E+02-1.03342697E+00 1.17701373E-01-9.65642897E-05    3
 4.08024208E-08-6.98171764E-12-4.05288548E+04 3.54940798E+01                   4
eC6H11O           thgen C   6H  11O   1     G   300.000  5000.000 1394.00      1 !aC6H10OHa
 2.03929700E+01 2.45187709E-02-8.41856204E-06 1.31046355E-09-7.61727944E-14    2
-2.06909989E+04-8.20568153E+01-1.87871401E+00 7.93257057E-02-6.11866850E-05    3
 2.48859339E-08-4.16784856E-12-1.31968568E+04 3.66333431E+01                   4
eC8H16OOH         thgen C   8H  17O   2     G   300.000  5000.000 1389.00      1 !C8H16OOHa
 3.07397081E+01 3.73018969E-02-1.29049669E-05 2.01894554E-09-1.17762475E-13    2
-3.15068226E+04-1.32144428E+02 1.40546983E+00 1.01231452E-01-6.51104214E-05    3
 2.10691417E-08-2.74891169E-12-2.08048230E+04 2.71218551E+01                   4
eC8H16Oa          thgen C   8H  16O   1     G   300.000  5000.000 1400.00      1 !C8H16cyOa
 2.86517642E+01 3.46386588E-02-1.18518776E-05 1.84069154E-09-1.06825812E-13    2
-4.25592158E+04-1.31150669E+02-5.76928170E+00 1.20571551E-01-9.50118972E-05    3
 3.87873991E-08-6.42536826E-12-3.12073782E+04 5.16683952E+01                   4
eC8H16OH          thgen C   8H  17O   1     G   300.000  5000.000 1392.00      1 !C8H16OHa
 2.69917827E+01 3.73389812E-02-1.26943183E-05 1.96301219E-09-1.13579556E-13    2
-3.80868457E+04-1.13667176E+02 2.44067937E-01 9.51600551E-02-5.87486708E-05    3
 1.79070309E-08-2.11274074E-12-2.83425350E+04 3.16196664E+01                   4
eHOC8H16OO        thgen C   8H  17O   3     G   300.000  5000.000 1395.00      1 !HOC8H16OOa
 3.26338310E+01 3.79496949E-02-1.30617466E-05 2.03629959E-09-1.18479466E-13    2
-5.76415477E+04-1.41762777E+02-1.24077741E+00 1.22907206E-01-9.71243843E-05    3
 4.08077570E-08-7.06482698E-12-4.63504290E+04 3.82817882E+01                   4
eHOC8H15OOH       thgen C   8H  17O   3     G   300.000  5000.000 1396.00      1 !HOC8H15OOHb
 3.46825050E+01 3.59643042E-02-1.24188031E-05 1.94048562E-09-1.13090096E-13    2
-5.18526511E+04-1.50576734E+02-1.47768720E+00 1.27366779E-01-1.03061415E-04    3
 4.36041044E-08-7.52226100E-12-3.99390993E+04 4.12496726E+01                   4
eHOOHOC8H15OO     thgen C   8H  17O   5     G   300.000  5000.000 1393.00      1 !HOOHOC8H15OOb
 3.84450561E+01 3.77727744E-02-1.31168223E-05 2.05721129E-09-1.20202379E-13    2
-6.97475221E+04-1.65681283E+02 3.53289826E-02 1.35647481E-01-1.11736312E-04    3
 4.83696694E-08-8.55179152E-12-5.70961785E+04 3.79272956E+01                   4
eC8KETOH          thgen C   8H  16O   4     G   300.000  5000.000 1398.00      1 !HOCHOC7H13OOHa
 3.74342763E+01 3.38364007E-02-1.17342458E-05 1.83903523E-09-1.07409629E-13    2
-8.77431933E+04-1.67383332E+02-1.72335641E+00 1.32356593E-01-1.07945151E-04    3
 4.50049835E-08-7.56320195E-12-7.49081537E+04 4.03199775E+01                   4
eC8H16Ob          thgen C   8H  16O   1     G   300.000  5000.000 1392.00      1 !C8H15OHa
 2.80323706E+01 3.37672949E-02-1.13521595E-05 1.74317216E-09-1.00395104E-13    2
-4.63767660E+04-1.22218169E+02-2.00364651E+00 1.04263416E-01-7.41019253E-05    3
 2.69346746E-08-3.95016408E-12-3.60703245E+04 3.88252780E+01                   4
eC8H16O2          thgen C   8H  16O   2     G   300.000  5000.000 1401.00      1 !C8H16O2b
 2.93413495E+01 3.65379128E-02-1.24064071E-05 1.91733791E-09-1.10905207E-13    2
-7.21953796E+04-1.32310335E+02-9.15894229E+00 1.33544609E-01-1.06730908E-04    3
 4.38161190E-08-7.24454776E-12-5.96523573E+04 7.17509058E+01                   4
eC8H15O3          thgen C   8H  15O   3     G   300.000  5000.000 1398.00      1 !C8H15O3a
 3.12783391E+01 3.42807701E-02-1.17676115E-05 1.83166987E-09-1.06469286E-13    2
-6.65781097E+04-1.31824371E+02-3.48952332E+00 1.20718722E-01-9.51365046E-05    3
 3.87986782E-08-6.42606839E-12-5.50629959E+04 5.29871708E+01                   4
eC4H9             thgen C   4H   9          G   300.000  5000.000 1371.00      1 !tC4H9
 1.06256766E+01 2.10524192E-02-7.24699414E-06 1.12975765E-09-6.57275211E-14    2
 8.98003085E+01-3.28154286E+01 3.00651244E+00 2.87404049E-02-2.86301425E-06    3
-5.92506428E-09 1.92085423E-12 3.85126136E+03 1.18650543E+01                   4
eC4H8             thgen C   4H   8          G   300.000  5000.000 1388.00      1 !iC4H8
 1.12250420E+01 1.81815694E-02-6.20445208E-06 9.61623502E-10-5.57203448E-14    2
-7.69990589E+03-3.73290465E+01 9.39096232E-01 3.90507649E-02-2.16375684E-05    3
 5.86955550E-09-6.13931254E-13-3.74834503E+03 1.91392713E+01                   4
eC4H7             thgen C   4H   7          G   300.000  5000.000 1386.00      1 !iC4H7a
 1.20755413E+01 1.53838035E-02-5.34471115E-06 8.38457076E-10-4.89970916E-14    2
 1.02789716E+04-4.16938641E+01 2.33005612E-01 4.23571985E-02-2.93968519E-05    3
 1.09284827E-08-1.73005596E-12 1.45421013E+04 2.22900171E+01                   4
eC4H6O            thgen C   4H   6O   1     G   300.000  5000.000 1391.00      1 !C3H5CHOa
 1.41279810E+01 1.29112659E-02-4.34186702E-06 6.67173304E-10-3.84535808E-14    2
-2.01773021E+04-5.01180338E+01 4.50134773E-01 4.72292743E-02-3.77301584E-05    3
 1.55910071E-08-2.60865835E-12-1.56890055E+04 2.24608135E+01                   4
eC8H15O           thgen C   8H  15O   1     G   300.000  5000.000 1397.00      1 !eC8H15Ob
 2.75863875E+01 3.27407309E-02-1.11424207E-05 1.72436583E-09-9.98301468E-14    2
-1.96041060E+04-1.18285094E+02-2.61697535E+00 1.06846662E-01-8.15179981E-05    3
 3.24235941E-08-5.26561735E-12-9.49998227E+03 4.26163638E+01                   4
!
!ethanol mechanism
!
C2H5OH     3/12/95 THERMC   2H   6O   1     G   300.000  5000.000 1391.00      1
 7.95264841E+00 1.31574144E-02-4.43693359E-06 6.82201160E-10-3.93096335E-14    2
-3.23602958E+04-1.76537972E+01 4.23149045E-01 2.92858167E-02-1.73845099E-05    3
 5.33639892E-09-6.74917252E-13-2.95683054E+04 2.33538763E+01                   4
sC2H4OH    3/12/95 THERMC   2H   5O   1     G  0300.00   5000.00  1553.00      1
 7.26631179E+00 1.09588926E-02-3.63662803E-06 5.53659830E-10-3.17012322E-14    2
-8.64310684E+03-1.06794104E+01 1.83974631E+00 1.87789371E-02-4.60544253E-06    3
-2.13116990E-09 9.43772653E-13-6.29595195E+03 2.01446141E+01                   4
CH2OH                   H   3O   1C   1     G    200.00   6000.00 1000.00      1
 4.72398695E+00 6.50832540E-03-2.24240605E-06 3.51742805E-10-2.06424726E-14    2
-3.81156740E+03 1.47350104E+00 4.73864580E+00 1.27132491E-03 1.46005656E-05    3
-1.83666166E-08 7.07708694E-12-3.56200591E+03 2.65277676E+00                   4
!
!ETBE mechanism
!
ETBE              TH0305C   6H  14O   1    0G   300.000  5000.000 1389.00      1 !ETBE
 2.21508651E+01 2.98137845E-02-1.01554491E-05 1.57269381E-09-9.10959376E-14    2
-5.07523998E+04-9.33983102E+01-3.28862573E+00 9.26281182E-02-7.12857098E-05    3
 2.93596725E-08-5.01666646E-12-4.21697247E+04 4.21734732E+01                   4
ETBEr             TH0305C   6H  13O   1    0G   300.000  5000.000 1389.00      1 !ETBEb
 2.20330265E+01 2.74035757E-02-9.33237953E-06 1.44508181E-09-8.37002217E-14    2
-2.92895371E+04-9.09731261E+01-2.35968143E+00 8.92913218E-02-7.15651949E-05    3
 3.06906761E-08-5.42339526E-12-2.12112344E+04 3.84568283E+01                   4
ETBErOO           TH0305C   6H  13O   3    0G   300.000  5000.000 1390.00      1 !ETBEOOb
 2.62610647E+01 2.93146822E-02-1.01687182E-05 1.59355576E-09-9.30548381E-14    2
-4.88159407E+04-1.07081208E+02 1.55226822E-02 9.54929521E-02-7.68121259E-05    3
 3.31681339E-08-5.92704082E-12-4.00192357E+04 3.24312181E+01                   4
ETBEqOOH          TH0305C   6H  13O   3    0G   300.000  5000.000 1391.00      1 !ETBEOOHc
 2.83707397E+01 2.72893006E-02-9.51477890E-06 1.49633140E-09-8.75961785E-14    2
-4.30616546E+04-1.18587772E+02-4.39598447E-01 1.00840716E-01-8.39012390E-05    3
 3.66049805E-08-6.51507385E-12-3.35733490E+04 3.41078936E+01                   4
HOOETBEqOO        TH0305C   6H  13O   5    0G   300.000  5000.000 1389.00      1 !HOOETBEOOc
 3.21789227E+01 2.89164682E-02-1.01195383E-05 1.59536587E-09-9.35536148E-14    2
-6.09582347E+04-1.33905904E+02 9.36896157E-01 1.09467101E-01-9.28595479E-05    3
 4.13728883E-08-7.51041066E-12-5.07038086E+04 3.14728046E+01                   4
ETBEKET           TH0305C   6H  12O   4    0G   300.000  5000.000 1387.00      1 !CHOETBEOOHc
 2.91527643E+01 2.68789416E-02-9.43186093E-06 1.48969099E-09-8.74706889E-14    2
-8.61640532E+04-1.23256594E+02 1.30268169E+00 9.36097543E-02-7.20062846E-05    3
 2.88507509E-08-4.77092724E-12-7.65751106E+04 2.58673489E+01                   4
aC4H9             thgen C   4H   9          G   300.000  5000.000 1371.00      1 !tC4H9
 1.06256766E+01 2.10524192E-02-7.24699414E-06 1.12975765E-09-6.57275211E-14    2
 8.98003085E+01-3.28154286E+01 3.00651244E+00 2.87404049E-02-2.86301425E-06    3
-5.92506428E-09 1.92085423E-12 3.85126136E+03 1.18650543E+01                   4
aC4H8O            thgen C   4H   8O   1     G   300.000  5000.000 1392.00      1 !iC3H7CHO
 1.36613856E+01 1.84824914E-02-6.36422166E-06 9.92500791E-10-5.77620168E-14    2
-3.26693794E+04-4.72471679E+01-9.55907716E-02 4.82168838E-02-3.02557470E-05    3
 9.46599067E-09-1.17488836E-12-2.76328254E+04 2.75195242E+01                   4
aC4H7O2           thgen C   4H   7O   2     G   300.000  5000.000 1394.00      1 !C4H7O2e
 1.70212535E+01 1.54406861E-02-5.28075068E-06 8.20395952E-10-4.76382051E-14    2
-2.75767570E+04-6.36240507E+01 3.88341615E-01 5.37657980E-02-3.81549769E-05    3
 1.32377054E-08-1.78136225E-12-2.18410336E+04 2.57375049E+01                   4
aC4H8             thgen C   4H   8          G   300.000  5000.000 1388.00      1 !iC4H8
 1.12250420E+01 1.81815694E-02-6.20445208E-06 9.61623502E-10-5.57203448E-14    2
-7.69990589E+03-3.73290465E+01 9.39096232E-01 3.90507649E-02-2.16375684E-05    3
 5.86955550E-09-6.13931254E-13-3.74834503E+03 1.91392713E+01                   4
aC4H7             thgen C   4H   7          G   300.000  5000.000 1386.00      1 !iC4H7a
 1.20755413E+01 1.53838035E-02-5.34471115E-06 8.38457076E-10-4.89970916E-14    2
 1.02789716E+04-4.16938641E+01 2.33005612E-01 4.23571985E-02-2.93968519E-05    3
 1.09284827E-08-1.73005596E-12 1.45421013E+04 2.22900171E+01                   4
aC5H11O           TH0305C   5H  11O   1    0G   300.000  5000.000 1385.00      1 !CM2OC2H5
 1.59087959E+01 2.58171909E-02-8.87158586E-06 1.38145198E-09-8.03090835E-14    2
-2.25573003E+04-5.60090984E+01 4.41740036E-01 5.93645503E-02-3.73018702E-05    3
 1.28184847E-08-1.94064711E-12-1.67585612E+04 2.82588145E+01                   4
ETBErO            TH0305C   6H  13O   2    0G   300.000  5000.000 1394.00      1 !ETBEOb
 2.45401312E+01 2.84547146E-02-9.82759764E-06 1.53563051E-09-8.94912851E-14    2
-4.82927582E+04-1.03715713E+02-2.23299574E+00 9.75611698E-02-8.06770736E-05    3
 3.54303225E-08-6.36582355E-12-3.95323702E+04 3.79438181E+01                   4
COOM2OC2H5        TH0305C   5H  11O   3    0G   300.000  5000.000 1388.00      1 !COOM2OC2H5