!
! ===== gasoline PRF reduced mechanism 2.0 (#190128a) =====
!       with ethanol and NOx
!
! Fuel: nC7H16(n-heptane)
!       iC8H18(isooctane, 2,2,4-trimethylpentane)
!       C2H5OH(ethanol)
!
THERMO
   300.000  1000.000  5000.000
!
!n-heptane mechanism
!
nC7H16            thgen C   7H  16          G   300.000  5000.000 1391.00      1 !nC7H16
 2.22177923E+01 3.47632604E-02-1.18388528E-05 1.83265875E-09-1.06109932E-13    2
-3.42772591E+04-9.23217457E+01-1.26871064E+00 8.54348955E-02-5.25290944E-05    3
 1.62884286E-08-2.02214778E-12-2.56586562E+04 3.53739478E+01                   4
nC7H15            thgen C   7H  15          G   300.000  5000.000 1382.00      1 !nC7H15c
 2.16358383E+01 3.23340841E-02-1.09280566E-05 1.68368616E-09-9.71844623E-14    2
-1.05866176E+04-8.52122680E+01-3.88848544E-02 7.56801544E-02-4.07609055E-05    3
 9.33601461E-09-4.94482163E-13-2.35589863E+03 3.37383486E+01                   4
nC7H15OO          thgen C   7H  15O   2     G   300.000  5000.000 1390.00      1 !nC7H15OOc
 2.60523050E+01 3.43839001E-02-1.18715005E-05 1.85452176E-09-1.08053193E-13    2
-2.94761134E+04-1.05463689E+02 3.59006547E-01 9.42245153E-02-6.66804487E-05    3
 2.54724302E-08-4.13086673E-12-2.03728288E+04 3.28613586E+01                   4
nC7H14OOH         thgen C   7H  15O   2     G   300.000  5000.000 1389.00      1 !C7H14OOHk
 2.74573337E+01 3.26265036E-02-1.12386517E-05 1.75329980E-09-1.02071273E-13    2
-2.48239746E+04-1.11231599E+02 8.68010527E-01 9.24071780E-02-6.23385915E-05    3
 2.16105189E-08-3.07642818E-12-1.53160279E+04 3.24663802E+01                   4
nHOOC7H14OO       thgen C   7H  15O   4     G   300.000  5000.000 1390.00      1 !HOOC7H14OOk
 3.28360162E+01 3.32763432E-02-1.15831469E-05 1.81955309E-09-1.06432285E-13    2
-4.40287923E+04-1.36795390E+02 1.41185977E+00 1.10703712E-01-8.70872996E-05    3
 3.63452156E-08-6.27852573E-12-3.33720367E+04 3.07923596E+01                   4
nC7KET            thgen C   7H  14O   3     G   300.000  5000.000 1386.00      1 !COC6H13OOHg
 2.86566981E+01 3.21565793E-02-1.11959188E-05 1.75889497E-09-1.02888014E-13    2
-6.19744506E+04-1.16883589E+02 2.32186256E+00 9.45240193E-02-6.99211946E-05    3
 2.79874447E-08-4.74465002E-12-5.27085951E+04 2.45959611E+01                   4
nC5H9O            thgen C   5H   9O   1     G   300.000  5000.000 1379.00      1 !C4H9COa
 1.64012943E+01 2.04003752E-02-6.93873682E-06 1.07367226E-09-6.21614279E-14    2
-1.67278682E+04-5.71188765E+01 2.36413323E+00 4.95786327E-02-2.90721987E-05    3
 8.29294303E-09-9.03229011E-13-1.14543903E+04 1.96153510E+01                   4
nC5H11            thgen C   5H  11          G   300.000  5000.000 1390.00      1 !C5H11a
 1.52896647E+01 2.39755267E-02-8.18341222E-06 1.26861432E-09-7.35224954E-14    2
-9.72919304E+02-5.44277267E+01 5.79609854E-02 5.60823625E-02-3.31785211E-05    3
 9.79021087E-09-1.14223950E-12 4.71440753E+03 2.86918308E+01                   4
nC5H10            thgen C   5H  10          G   300.000  5000.000 1392.00      1 !C5H10a
 1.45837757E+01 2.24057409E-02-7.63231344E-06 1.18163580E-09-6.84206955E-14    2
-1.00871422E+04-5.23577225E+01-1.07237458E+00 5.74872482E-02-3.75589723E-05    3
 1.28055098E-08-1.81083209E-12-4.46482377E+03 3.23144603E+01                   4
nC5H9             thgen C   5H   9          G   300.000  5000.000 1388.00      1 !aC5H9a
 1.45041351E+01 2.05083694E-02-7.10654706E-06 1.11295524E-09-6.49627735E-14    2
 6.79087910E+03-5.34346369E+01-1.04797696E+00 5.41768083E-02-3.45284353E-05    3
 1.11684416E-08-1.47643393E-12 1.25116524E+04 3.11242264E+01                   4
nC7H15O           thgen C   7H  15O   1     G   300.000  5000.000 1395.00      1 !nC7H15Oc
 2.43050592E+01 3.31299633E-02-1.13048045E-05 1.75223806E-09-1.01542653E-13    2
-2.88617678E+04-9.94127348E+01-1.08852878E+00 9.23114953E-02-6.44357297E-05    3
 2.36757686E-08-3.61001227E-12-1.99930305E+04 3.70751744E+01                   4
nC7H15OOH         thgen C   7H  16O   2     G   300.000  5000.000 1390.00      1 !nC7H15OOHc
 2.85696040E+01 3.45362690E-02-1.19635215E-05 1.87319578E-09-1.09321273E-13    2
-4.87912635E+04-1.20812558E+02-5.93636262E-01 1.02847108E-01-7.42877994E-05    3
 2.83328117E-08-4.51137547E-12-3.85781122E+04 3.59212486E+01                   4
!
!isooctane mechanism
!
iC8H18            thgen C   8H  18          G   300.000  5000.000 1397.00      1 !iC8H18
 2.70920030E+01 3.79052142E-02-1.29375691E-05 2.00580387E-09-1.16261109E-13    2
-4.27201269E+04-1.22972430E+02-4.20184373E+00 1.11525135E-01-7.94018605E-05    3
 2.94327964E-08-4.47928170E-12-3.19113977E+04 4.48981238E+01                   4
iC8H17            thgen C   8H  17          G   300.000  5000.000 1393.00      1 !iC8H17b
 2.64552622E+01 3.55440069E-02-1.20528460E-05 1.86101603E-09-1.07579175E-13    2
-1.90011197E+04-1.16235434E+02-3.08982602E+00 1.02313728E-01-6.84786443E-05    3
 2.30138816E-08-3.06907219E-12-8.59119871E+03 4.31119876E+01                   4
iC8H17OO          thgen C   8H  17O   2     G   300.000  5000.000 1394.00      1 !iC8H17OOb
 3.09355421E+01 3.74105002E-02-1.29073110E-05 2.01549577E-09-1.17402236E-13    2
-3.78977875E+04-1.36798535E+02-3.06443818E+00 1.22613369E-01-9.71774181E-05    3
 4.08857690E-08-7.08508839E-12-2.65537797E+04 4.39441843E+01                   4
iC8H16OOH         thgen C   8H  17O   2     G   300.000  5000.000 1395.00      1 !C8H16OOHg
 3.29642834E+01 3.54528218E-02-1.22763166E-05 1.92179615E-09-1.12146066E-13    2
-3.21060047E+04-1.46610031E+02-3.22291546E+00 1.26638844E-01-1.02432626E-04    3
 4.32601240E-08-7.45097857E-12-2.01505706E+04 4.54684584E+01                   4
iHOOC8H16OO       thgen C   8H  17O   4     G   300.000  5000.000 1393.00      1 !HOOC8H16OOg
 3.68921902E+01 3.70313467E-02-1.28759800E-05 2.02124832E-09-1.18176812E-13    2
-5.00657935E+04-1.62652799E+02-1.32886825E+00 1.32867168E-01-1.07401821E-04    3
 4.53903634E-08-7.84223845E-12-3.73590684E+04 4.04443512E+01                   4
iC8KET            thgen C   8H  16O   3     G   300.000  5000.000 1393.00      1 !COC7H15OOHc
 3.37013249E+01 3.51404946E-02-1.22403555E-05 1.92384697E-09-1.12581529E-13    2
-6.78193788E+04-1.48813885E+02-3.69054288E+00 1.27292525E-01-1.00891530E-04    3
 4.14152491E-08-6.93785042E-12-5.52794020E+04 5.03601636E+01                   4
iC7H13O           thgen C   7H  13O   1     G   300.000  5000.000 1394.00      1 !C6H13vCOb
 2.42679982E+01 2.86333840E-02-9.88040093E-06 1.54317611E-09-8.99095196E-14    2
-3.05478683E+04-1.04458208E+02-1.80946874E+00 9.01521048E-02-6.57659227E-05    3
 2.48425015E-08-3.84914862E-12-2.15441753E+04 3.53937659E+01                   4
iC7H14            thgen C   7H  14          G   300.000  5000.000 1395.00      1 !C7H14b
 2.24912357E+01 2.96685986E-02-1.00455975E-05 1.54950613E-09-8.95071232E-14    2
-2.24019669E+04-9.74583681E+01-3.30938880E+00 9.05113458E-02-6.47606480E-05    3
 2.38759306E-08-3.57718690E-12-1.35517265E+04 4.08164660E+01                   4
iC7H13            thgen C   7H  13          G   300.000  5000.000 1396.00      1!aC7H13b
 2.26058410E+01 2.77383394E-02-9.53221699E-06 1.48480972E-09-8.63512957E-14    2
-4.56407218E+03-9.91382375E+01-3.87510891E+00 9.11860004E-02-6.79894558E-05    3
 2.61194736E-08-4.08578594E-12 4.44229599E+03 4.24657120E+01                   4
iC4H9             thgen C   4H   9          G   300.000  5000.000 1371.00      1 !tC4H9
 1.06256766E+01 2.10524192E-02-7.24699414E-06 1.12975765E-09-6.57275211E-14    2
 8.98003085E+01-3.28154286E+01 3.00651244E+00 2.87404049E-02-2.86301425E-06    3
-5.92506428E-09 1.92085423E-12 3.85126136E+03 1.18650543E+01                   4
iC4H8             thgen C   4H   8          G   300.000  5000.000 1388.00      1 !iC4H8
 1.12250420E+01 1.81815694E-02-6.20445208E-06 9.61623502E-10-5.57203448E-14    2
-7.69990589E+03-3.73290465E+01 9.39096232E-01 3.90507649E-02-2.16375684E-05    3
 5.86955550E-09-6.13931254E-13-3.74834503E+03 1.91392713E+01                   4
iC4H7             thgen C   4H   7          G   300.000  5000.000 1386.00      1 !iC4H7a
 1.20755413E+01 1.53838035E-02-5.34471115E-06 8.38457076E-10-4.89970916E-14    2
 1.02789716E+04-4.16938641E+01 2.33005612E-01 4.23571985E-02-2.93968519E-05    3
 1.09284827E-08-1.73005596E-12 1.45421013E+04 2.22900171E+01                   4
iC8H17O           thgen C   8H  17O   1     G   300.000  5000.000 1400.00      1 !iC8H17Ob
 2.92000599E+01 3.62425322E-02-1.23912392E-05 1.92327737E-09-1.11564645E-13    2
-3.73134757E+04-1.30872815E+02-3.96943499E+00 1.18162148E-01-9.09286549E-05    3
 3.65727157E-08-6.01087592E-12-2.62535880E+04 4.56667705E+01                   4
iC8H17OOH         thgen C   8H  18O   2     G   300.000  5000.000 1395.00      1 !iC8H17OOHb
 3.33786590E+01 3.76091799E-02-1.30114163E-05 2.03563516E-09-1.18738112E-13    2
-5.71706588E+04-1.51690420E+02-3.94285031E+00 1.31014400E-01-1.04685507E-04    3
 4.37791373E-08-7.48600810E-12-4.47722798E+04 4.66425335E+01                   4
!
!ethanol mechanism
!
C2H5OH     3/12/95 THERMC   2H   6O   1     G   300.000  5000.000 1391.00      1
 7.95264841E+00 1.31574144E-02-4.43693359E-06 6.82201160E-10-3.93096335E-14    2
-3.23602958E+04-1.76537972E+01 4.23149045E-01 2.92858167E-02-1.73845099E-05    3
 5.33639892E-09-6.74917252E-13-2.95683054E+04 2.33538763E+01                   4
sC2H4OH    3/12/95 THERMC   2H   5O   1     G  0300.00   5000.00  1553.00      1
 7.26631179E+00 1.09588926E-02-3.63662803E-06 5.53659830E-10-3.17012322E-14    2
-8.64310684E+03-1.06794104E+01 1.83974631E+00 1.87789371E-02-4.60544253E-06    3
-2.13116990E-09 9.43772653E-13-6.29595195E+03 2.01446141E+01                   4
CH2OH                   H   3O   1C   1     G    200.00   6000.00 1000.00      1
 4.72398695E+00 6.50832540E-03-2.24240605E-06 3.51742805E-10-2.06424726E-14    2
-3.81156740E+03 1.47350104E+00 4.73864580E+00 1.27132491E-03 1.46005656E-05    3
-1.83666166E-08 7.07708694E-12-3.56200591E+03 2.65277676E+00                   4
!
!base mechanism
!
N2                      N   2               G    200.00   6000.00 1000.00      1
 2.95254070E+00 1.39688380E-03-4.92625770E-07 7.86000910E-11-4.60749780E-15    2
-9.23937530E+02 5.87182210E+00 3.53096280E+00-1.23659500E-04-5.02993390E-07    3
 2.43527680E-09-1.40879540E-12-1.04696370E+03 2.96743910E+00                   4
O                       O   1               G    200.00   6000.00 1000.00      1
 2.54363697E+00-2.73162486E-05-4.19029520E-09 4.95481845E-12-4.79553694E-16    2
 2.92260120E+04 4.92229457E+00 3.16826710E+00-3.27931884E-03 6.64306396E-06    3
-6.12806624E-09 2.11265971E-12 2.91222592E+04 2.05193346E+00                   4
O2                      O   2               G    200.00   6000.00 1000.00      1
 3.66096083E+00 6.56365523E-04-1.41149485E-07 2.05797658E-11-1.29913248E-15    2
-1.21597725E+03 3.41536184E+00 3.78245636E+00-2.99673415E-03 9.84730200E-06    3
-9.68129508E-09 3.24372836E-12-1.06394356E+03 3.65767573E+00                   4
H                       H   1               G    200.00   6000.00 1000.00      1
 2.50000000E+00 0.00000000E+00 0.00000000E+00 0.00000000E+00 0.00000000E+00    2
 2.54736600E+04-4.46682850E-01 2.50000000E+00 0.00000000E+00 0.00000000E+00    3
 0.00000000E+00 0.00000000E+00 2.54736600E+04-4.46682850E-01                   4
OH                      H   1O   1          G    200.00   6000.00 1000.00      1
 2.83864607E+00 1.10725586E-03-2.93914978E-07 4.20524247E-11-2.42169092E-15    2
 3.68599690E+03 5.84452662E+00 3.99201543E+00-2.40131752E-03 4.61793841E-06    3
-3.88113333E-09 1.36411470E-12 3.35711894E+03-1.03925458E-01                   4
HO2                     H   1O   2          G    200.00   6000.00 1000.00      1
 4.17226590E+00 1.88120980E-03-3.46292970E-07 1.94685160E-11 1.76091530E-16    2
 2.13222508E+02 2.95779740E+00 4.30178800E+00-4.74902010E-03 2.11579530E-05    3
-2.42759610E-08 9.29206700E-12 4.46212417E+02 3.71670100E+00                   4
H2                      H   2               G    200.00   6000.00 1000.00      1
 2.93283050E+00 8.26598020E-04-1.46400570E-07 1.54098510E-11-6.88796150E-16    2
-8.13055820E+02-1.02431640E+00 2.34430290E+00 7.98042480E-03-1.94779170E-05    3
 2.01569670E-08-7.37602890E-12-9.17924130E+02 6.83002180E-01                   4
H2O                     H   2O   1          G    200.00   6000.00 1000.00      1
 2.67703890E+00 2.97318160E-03-7.73768890E-07 9.44335140E-11-4.26899910E-15    2
-2.98858940E+04 6.88255000E+00 4.19863520E+00-2.03640170E-03 6.52034160E-06    3
-5.48792690E-09 1.77196800E-12-3.02937260E+04-8.49009010E-01                   4
H2O2                    H   2O   2          G    200.00   6000.00 1000.00      1
 4.57333537E+00 4.04984070E-03-1.29479479E-06 1.97281710E-10-1.13402846E-14    2
-1.80040975E+04 7.04278488E-01 4.27611269E+00-5.42822417E-04 1.67335701E-05    3
-2.15770813E-08 8.62454363E-12-1.77035843E+04 3.43505074E+00                   4
CO                      O   1C   1          G    200.00   6000.00 1000.00      1
 3.04848590E+00 1.35172810E-03-4.85794050E-07 7.88536440E-11-4.69807460E-15    2
-1.42661170E+04 6.01709770E+00 3.57953350E+00-6.10353690E-04 1.01681430E-06    3
 9.07005860E-10-9.04424490E-13-1.43440860E+04 3.50840930E+00                   4
CO2                     O   2C   1          G    200.00   6000.00 1000.00      1
 4.63651110E+00 2.74145690E-03-9.95897590E-07 1.60386660E-10-9.16198570E-15    2
-4.90249040E+04-1.93489550E+00 2.35681300E+00 8.98412990E-03-7.12206320E-06    3
 2.45730080E-09-1.42885480E-13-4.83719710E+04 9.90090350E+00                   4
CH                      H   1C   1          G    200.00   6000.00 1000.00      1
 2.52090620E+00 1.76537260E-03-4.61475810E-07 5.92885670E-11-3.34732090E-15    2
 7.10230206E+04 7.40532230E+00 3.48981660E+00 3.23835540E-04-1.68899060E-06    3
 3.16217330E-09-1.40609070E-12 7.06888776E+04 2.08401110E+00                   4
HCO                     H   1O   1C   1     G    200.00   6000.00 1000.00      1
 3.64896209E+00 3.08090819E-03-1.12429876E-06 1.86308085E-10-1.13951828E-14    2
 3.71209048E+03 5.06147406E+00 4.22118584E+00-3.24392532E-03 1.37799446E-05    3
-1.33144093E-08 4.33768865E-12 3.83956496E+03 3.39437243E+00                   4
CH2                     H   2C   1          G    200.00   6000.00 1000.00      1
 2.53871220E+00 3.82254910E-03-1.28613040E-06 1.98003080E-10-1.14657430E-14    2
 4.61292530E+04 8.10546480E+00 4.17936550E+00-2.21785530E-03 7.96536020E-06    3
-6.91273390E-09 2.24753180E-12 4.57508570E+04-7.61137030E-03                   4
CH2O                    H   2O   1C   1     G    200.00   6000.00 1000.00      1
 3.16948070E+00 6.19327420E-03-2.25059810E-06 3.65982450E-10-2.20154100E-14    2
-1.44784250E+04 6.04235330E+00 4.79370360E+00-9.90815180E-03 3.73214590E-05    3
-3.79279020E-08 1.31770150E-11-1.43089550E+04 6.02887020E-01                   4
CH3                     H   3C   1          G    200.00   6000.00 1000.00      1
 2.96697350E+00 5.79366720E-03-1.96948090E-06 3.05569360E-10-1.77678430E-14    2
 1.65131329E+04 4.79188030E+00 3.67333750E+00 2.00205590E-03 5.78531350E-06    3
-6.98730540E-09 2.60555990E-12 1.64161969E+04 1.60183150E+00                   4
CH3O                    H   3O   1C   1     G    200.00   6000.00 1000.00      1
 4.26533080E+00 7.85764060E-03-2.84104380E-06 4.60451900E-10-2.76319060E-14    2
 1.65605687E+02 3.93099470E-01 3.26523370E+00 3.30316650E-03 1.70488010E-05    3
-2.27096300E-08 8.80717680E-12 8.38550421E+02 7.42573570E+00                   4
CH3OO      7/13/98 THERMC   1H   3O   2     G   300.000  5000.000 1385.00      1
 5.95787891E+00 7.90728626E-03-2.68246234E-06 4.13891337E-10-2.39007330E-14    2
-1.53574838E+03-4.71963886E+00 4.26146906E+00 1.00873599E-02-3.21506184E-06    3
 2.09409267E-10 4.18339103E-14-6.84394259E+02 5.16330320E+00                   4
CH4                     H   4C   1          G    200.00   6000.00 1000.00      1
 1.63542560E+00 1.00844310E-02-3.36923690E-06 5.34972800E-10-3.15528170E-14    2
-1.00056030E+04 9.99369530E+00 5.14987920E+00-1.36710080E-02 4.91801300E-05    3
-4.84744030E-08 1.66694410E-11-1.02466480E+04-4.64132440E+00                   4
CH3OOH     7/13/98 THERMC   1H   4O   2     G   300.000  5000.000 1390.00      1
 8.43117091E+00 8.06817909E-03-2.77094921E-06 4.31332243E-10-2.50692146E-14    2
-1.96678771E+04-1.91170629E+01 3.23442817E+00 1.90129767E-02-1.13386287E-05    3
 3.40306653E-09-4.11830222E-13-1.77197926E+04 9.25623949E+00                   4
HCCO                    H   1O   1C   2     G    200.00   6000.00 1000.00      1
 5.84690060E+00 3.64059600E-03-1.29590070E-06 2.07969190E-10-1.24000220E-14    2
 1.92484960E+04-5.29165330E+00 2.33501180E+00 1.70100830E-02-2.20188670E-05    3
 1.54064470E-08-4.34550970E-12 2.00502990E+04 1.19767290E+01                   4
C2H2                    H   2C   2          G    200.00   6000.00 1000.00      1
 4.65870470E+00 4.88409490E-03-1.60835630E-06 2.46987870E-10-1.38615050E-14    2
 2.56632180E+04-3.99790740E+00 8.08691080E-01 2.33613950E-02-3.55166360E-05    3
 2.80145660E-08-8.50044590E-12 2.63327640E+04 1.39396710E+01                   4
CH2CO                   H   2O   1C   2     G    200.00   6000.00 1000.00      1
 5.75779010E+00 6.34965070E-03-2.25844070E-06 3.62084620E-10-2.15690300E-14    2
-8.20537635E+03-6.10640370E+00 2.14011650E+00 1.80883680E-02-1.73242160E-05    3
 9.27674770E-09-1.99150110E-12-7.26981595E+03 1.21986990E+01                   4
C2H3                    H   3C   2          G    200.00   6000.00 1000.00      1
 4.70253100E+00 7.26422830E-03-2.58019920E-06 4.13199440E-10-2.45914920E-14    2
 3.40296750E+04-1.42937140E+00 3.00196020E+00 3.03043540E-03 2.44443150E-05    3
-3.58102420E-08 1.51087000E-11 3.48681730E+04 9.33044950E+00                   4
CH2CHO                  H   3O   1C   2     G    300.00   5000.00 1000.00      1
 5.97566990E+00 8.13059140E-03-2.74362450E-06 4.07030410E-10-2.17601710E-14    2
-1.26585075E+03-5.03208790E+00 3.40906240E+00 1.07385740E-02 1.89149250E-06    3
-7.15858310E-09 2.86738510E-12-2.34695926E+02 9.57145350E+00                   4
CH3CO             120186C   2H   3O   1     G  0300.00   5000.00  1000.00      1
 0.05612279E+02 0.08449886E-01-0.02854147E-04 0.04238376E-08-0.02268404E-12    2
-0.05187863E+05-0.03274949E+02 0.03125278E+02 0.09778220E-01 0.04521448E-04    3
-0.09009462E-07 0.03193718E-10-0.04108508E+05 0.01122885E+03                   4
CH3CO2     2/14/95 THERMC   2H   3O   2     G   300.000  5000.000 1395.00      1
 8.54059736E+00 8.32951214E-03-2.84722010E-06 4.41927196E-10-2.56373394E-14    2
-2.97290678E+04-2.03883545E+01 1.37440768E+00 2.49115604E-02-1.74308894E-05    3
 6.24799508E-09-9.09516835E-13-2.72330150E+04 1.81405454E+01                   4
CH3C(O)OO  6/26/95 THERMC   2H   3O   3     G   300.000  5000.000 1396.00      1
 1.15641474E+01 8.02672958E-03-2.77497463E-06 4.34069277E-10-2.53202435E-14    2
-1.93142188E+04-3.13182392E+01 2.61619505E+00 2.94830898E-02-2.23952554E-05    3
 8.56474251E-09-1.31255496E-12-1.62923875E+04 1.64911398E+01                   4
C2H4                    H   4C   2          G    300.00   5000.00 1000.00      1
 4.39854530E+00 9.62286070E-03-3.16637760E-06 4.57476280E-10-2.36594060E-14    2
 4.11532030E+03-2.46274380E+00 1.21766000E+00 1.30026750E-02 3.50374470E-06    3
-1.11555140E-08 4.72032220E-12 5.33738280E+03 1.54801690E+01                   4
CH3CHO            120186C   2O   1H   4     G  0300.00   5000.00  1000.00      1
 0.05868650E+02 0.01079424E+00-0.03645530E-04 0.05412912E-08-0.02896844E-12    2
-0.02264569E+06-0.06012946E+02 0.02505695E+02 0.01336991E+00 0.04671953E-04    3
-0.01128140E-06 0.04263566E-10-0.02124589E+06 0.01335089E+03                   4
CH3C(O)OOH 6/26/95 THERMC   2H   4O   3     G   300.000  5000.000 1391.00      1
 1.25060485E+01 9.47789695E-03-3.30402246E-06 5.19630793E-10-3.04233568E-14    2
-4.59856703E+04-3.79195947E+01 2.24135876E+00 3.37963514E-02-2.53887482E-05    3
 9.67583587E-09-1.49266157E-12-4.24677831E+04 1.70668133E+01                   4
C2H5                    H   5C   2          G    200.00   6000.00 1000.00      1
 4.28788140E+00 1.24338930E-02-4.41391190E-06 7.06541020E-10-4.20351360E-14    2
 1.23269670E+04 8.46025830E-01 4.30585800E+00-4.18336380E-03 4.97072700E-05    3
-5.99058740E-08 2.30484780E-11 1.31122260E+04 4.71002360E+00                   4
pC2H4OH    3/12/95 THERMC   2H   5O   1     G  0300.00   5000.00  1391.00      1
 7.52241939E+00 1.10492715E-02-3.72576465E-06 5.72827397E-10-3.30061759E-14    2
-7.29333590E+03-1.24958732E+01 1.17714711E+00 2.48115685E-02-1.50299503E-05    3
 4.79006785E-09-6.40994211E-13-4.95369043E+03 2.20081586E+01                   4
C2H5O      3/12/95 THERMC   2H   5O   1     G   300.000  5000.000 1389.00      1
 7.87339772E+00 1.13072907E-02-3.84421421E-06 5.94414105E-10-3.43894538E-14    2
-6.07274953E+03-1.73416790E+01 4.94420708E-01 2.71774434E-02-1.65909010E-05    3
 5.15204200E-09-6.48496915E-13-3.35252925E+03 2.28079378E+01                   4
C2H5OO     7/19/ 0 THERMC   2H   5O   2     G   300.000  5000.000 1382.00      1
 9.48696023E+00 1.24472545E-02-4.32161576E-06 6.77583033E-10-3.95784568E-14    2
-7.82481795E+03-2.30613020E+01 2.26846188E+00 2.76942578E-02-1.70804106E-05    3
 5.87951878E-09-9.20899069E-13-5.03880758E+03 1.64773972E+01                   4
C2H6                    H   6C   2          G    300.00   5000.00 1000.00      1
 4.70288470E+00 1.40426350E-02-4.64693770E-06 6.74737380E-10-3.50893120E-14    2
-1.26719880E+04-4.54339500E+00 1.53952600E+00 1.50408410E-02 6.68471150E-06    3
-1.33829480E-08 4.85613980E-12-1.12487660E+04 1.41073750E+01                   4
C2H5OOH    7/19/ 0 THERMC   2H   6O   2     G   300.000  5000.000 1383.00      1
 1.19442992E+01 1.26271597E-02-4.41776755E-06 6.96327353E-10-4.08268961E-14    2
-2.57408634E+04-3.73382394E+01 1.29970294E+00 3.65488420E-02-2.52808875E-05    3
 9.19746803E-09-1.41362233E-12-2.18866647E+04 2.02719078E+01                   4
aC3H5             thgen C   3H   5          G   300.000  5000.000 1386.00      1
 8.86716623E+00 1.09017161E-02-3.80111689E-06 5.97754270E-10-3.49908641E-14    2
 1.61010768E+04-2.50805399E+01-3.38203444E-01 3.23181416E-02-2.33791351E-05    3
 9.01780357E-09-1.46769445E-12 1.93623652E+04 2.44831718E+01                   4
C3H6              thgen C   3H   6          G   300.000  5000.000 1388.00      1
 8.01816543E+00 1.36989847E-02-4.66102270E-06 7.20993895E-10-4.17206749E-14    2
-1.87849595E+03-2.00297954E+01 3.92921186E-01 2.89160669E-02-1.54920156E-05    3
 3.88742327E-09-3.37241003E-13 1.06771101E+03 2.19072716E+01                   4
iC3H7             thgen C   3H   7          G   300.000  5000.000 1999.00      1
 7.09001153E+00 1.70236198E-02-5.94979925E-06 9.40957054E-10-5.53932270E-14    2
 6.75927916E+03-1.26897658E+01 6.35981674E-01 2.84995364E-02-1.14520937E-05    3
 8.92803184E-10 3.13189892E-13 9.22197497E+03 2.30735195E+01                   4
!
! high-temperature NOx reactions come form GRIMech 3.0
!
N                 L 6/88N   1               G   200.000  6000.000  1000.000    1
 0.24159429E+01 0.17489065E-03-0.11902369E-06 0.30226245E-10-0.20360982E-14    2
 0.56133773E+05 0.46496096E+01 0.25000000E+01 0.00000000E+00 0.00000000E+00    3
 0.00000000E+00 0.00000000E+00 0.56104637E+05 0.41939087E+01                   4
NH                And94 N   1H   1          G   200.000  6000.000  1000.000    1
 0.27836928E+01 0.13298430E-02-0.42478047E-06 0.78348501E-10-0.55044470E-14    2
 0.42120848E+05 0.57407799E+01 0.34929085E+01 0.31179198E-03-0.14890484E-05    3
 0.24816442E-08-0.10356967E-11 0.41880629E+05 0.18483278E+01                   4
NH2               And89 N   1H   2          G   200.000  6000.000  1000.000    1
 0.28347421E+01 0.32073082E-02-0.93390804E-06 0.13702953E-09-0.79206144E-14    2
 0.22171957E+05 0.65204163E+01 0.42040029E+01-0.21061385E-02 0.71068348E-05    3
-0.56115197E-08 0.16440717E-11 0.21885910E+05-0.14184248E+00                   4
NH3               J 6/77N   1H   3          G   200.000  6000.000  1000.000    1
 0.26344521E+01 0.56662560E-02-0.17278676E-05 0.23867161E-09-0.12578786E-13    2
-0.65446958E+04 0.65662928E+01 0.42860274E+01-0.46605230E-02 0.21718513E-04    3
-0.22808887E-07 0.82638046E-11-0.67417285E+04-0.62537277E+00                   4
NNH               T07/93N   2H   1          G   200.000  6000.000  1000.000    1
 0.37667544E+01 0.28915082E-02-0.10416620E-05 0.16842594E-09-0.10091896E-13    2
 0.28650697E+05 0.44705067E+01 0.43446927E+01-0.48497072E-02 0.20059459E-04    3
-0.21726464E-07 0.79469539E-11 0.28791973E+05 0.29779410E+01                   4
NO                RUS 78N   1O   1          G   200.000  6000.000  1000.000    1
 0.32606056E+01 0.11911043E-02-0.42917048E-06 0.69457669E-10-0.40336099E-14    2
 0.99209746E+04 0.63693027E+01 0.42184763E+01-0.46389760E-02 0.11041022E-04    3
-0.93361354E-08 0.28035770E-11 0.98446230E+04 0.22808464E+01                   4
NO2               L 7/88N   1O   2          G   200.000  6000.000  1000.000    1
 0.48847542E+01 0.21723956E-02-0.82806906E-06 0.15747510E-09-0.10510895E-13    2
 0.23164983E+04-0.11741695E+00 0.39440312E+01-0.15854290E-02 0.16657812E-04    3
-0.20475426E-07 0.78350564E-11 0.28966179E+04 0.63119917E+01                   4
N2O               L 7/88N   2O   1          G   200.000  6000.000  1000.000    1
 0.48230729E+01 0.26270251E-02-0.95850874E-06 0.16000712E-09-0.97752303E-14    2
 0.80734048E+04-0.22017207E+01 0.22571502E+01 0.11304728E-01-0.13671319E-04    3
 0.96819806E-08-0.29307182E-11 0.87417744E+04 0.10757992E+02                   4
HNO               And93 H   1N   1O   1     G   200.000  6000.000  1000.000    1
 0.29792509E+01 0.34944059E-02-0.78549778E-06 0.57479594E-10-0.19335916E-15    2
 0.11750582E+05 0.86063728E+01 0.45334916E+01-0.56696171E-02 0.18473207E-04    3
-0.17137094E-07 0.55454573E-11 0.11548297E+05 0.17498417E+01                   4
CN                HBH92 C   1N   1          G   200.000  6000.000  1000.000    1
 0.37459805E+01 0.43450775E-04 0.29705984E-06-0.68651806E-10 0.44134173E-14    2
 0.51536188E+05 0.27867601E+01 0.36129351E+01-0.95551327E-03 0.21442977E-05    3
-0.31516323E-09-0.46430356E-12 0.51708340E+05 0.39804995E+01                   4
HCN               GRI/98H   1C   1N   1     G   200.000  6000.000  1000.000    1
 0.38022392E+01 0.31464228E-02-0.10632185E-05 0.16619757E-09-0.97997570E-14    2
 0.14407292E+05 0.15754601E+01 0.22589886E+01 0.10051170E-01-0.13351763E-04    3
 0.10092349E-07-0.30089028E-11 0.14712633E+05 0.89164419E+01                   4
H2CN               41687H   2C   1N   1     G   300.00   4000.000  1000.000    1
 0.52097030E+01 0.29692911E-02-0.28555891E-06-0.16355500E-09 0.30432589E-13    2
 0.27677109E+05-0.44444780E+01 0.28516610E+01 0.56952331E-02 0.10711400E-05    3
-0.16226120E-08-0.23511081E-12 0.28637820E+05 0.89927511E+01                   4
HCNN              SRI/94C   1N   2H   1     G   300.000  5000.000  1000.000    1
 0.58946362E+01 0.39895959E-02-0.15982380E-05 0.29249395E-09-0.20094686E-13    2
 0.53452941E+05-0.51030502E+01 0.25243194E+01 0.15960619E-01-0.18816354E-04    3
 0.12125540E-07-0.32357378E-11 0.54261984E+05 0.11675870E+02                   4
HCNO              BDEA94H   1N   1C   1O   1G   300.000  5000.000  1382.000    1
 6.59860456E+00 3.02778626E-03-1.07704346E-06 1.71666528E-10-1.01439391E-14    2
 1.79661339E+04-1.03306599E+01 2.64727989E+00 1.27505342E-02-1.04794236E-05    3
 4.41432836E-09-7.57521466E-13 1.92990252E+04 1.07332972E+01                   4
HOCN              BDEA94H   1N   1C   1O   1G   300.000  5000.000  1368.000    1
 5.89784885E+00 3.16789393E-03-1.11801064E-06 1.77243144E-10-1.04339177E-14    2
-3.70653331E+03-6.18167825E+00 3.78604952E+00 6.88667922E-03-3.21487864E-06    3
 5.17195767E-10 1.19360788E-14-2.82698400E+03 5.63292162E+00                   4
HNCO              BDEA94H   1N   1C   1O   1G   300.000  5000.000  1478.000    1
 6.22395134E+00 3.17864004E-03-1.09378755E-06 1.70735163E-10-9.95021955E-15    2
-1.66599344E+04-8.38224741E+00 3.63096317E+00 7.30282357E-03-2.28050003E-06    3
-6.61271298E-10 3.62235752E-13-1.55873636E+04 6.19457727E+00                   4
NCO               EA 93 N   1C   1O   1     G   200.000  6000.000  1000.000    1
 0.51521845E+01 0.23051761E-02-0.88033153E-06 0.14789098E-09-0.90977996E-14    2
 0.14004123E+05-0.25442660E+01 0.28269308E+01 0.88051688E-02-0.83866134E-05    3
 0.48016964E-08-0.13313595E-11 0.14682477E+05 0.95504646E+01                   4
END