"""

 ===== gasoline 5-components surrogate mechanism 2.01 (#190426a) =====
       with revised ethanol, ETBE & base mechanism

 fuels
   nC7H16 : n-heptane
   iC8H18 : isooctane (2,2,4-trimethylpentane)
   eC8H16 : isooctene (2,4,4-trimethyl-1-pentene)
   cC7H14 : methylcyclohexane
  C6H5CH3 : toluene
     ETBE : ethyl-t-butylether
   C2H5OH : ethanol


 ===== gasoline 5-components surrogate mechanism 2.01 (#190426a) =====
       with revised ethanol, ETBE & base mechanism

 fuels
   nC7H16 : n-heptane
   iC8H18 : isooctane (2,2,4-trimethylpentane)
   eC8H16 : isooctene (2,4,4-trimethyl-1-pentene)
   cC7H14 : methylcyclohexane
  C6H5CH3 : toluene
     ETBE : ethyl-t-butylether
   C2H5OH : ethanol

"""

units(length='cm', time='s', quantity='mol', act_energy='cal/mol')

ideal_gas(name='gas',
          elements="H He C N O Ar H He C N O Ar",
          species="""nC7H16            iC8H18            eC8H16
                     cC7H14            nC7H15a           nC7H15b
                     nC7H15c           nC7H15d           C6H13a
                     C5H11a            nC3H7             nC4H9
                     iC8H17a           iC8H17b           iC8H17c
                     iC8H17d           C7H15a            tC4H9
                     iC4H9             C5H11b            iC3H7
                     eaC8H15a          eC8H15a           eaC8H15b
                     iC4H7a            C8H16OHa          C8H16OOHa
                     C8H16OHb          C8H16OOHb         C7H15b
                     cC7H13a           cC7H13b           cC7H13c
                     cC7H13d           cC7H13e           C6H11a
                     C7H14a            C7H14b            C7H14c
                     C7H14d            nC7H15OOa         nC7H15Oa
                     C3H6              nC7H15OOb         nC7H15Ob
                     C6H12a            n1C4H8            nC7H15OOc
                     nC7H15Oc          C5H10a            nC7H15OOd
                     nC7H15Od          C6H13b            C6H13c
                     C6H13OOa          C6H13Oa           C5H11c
                     C5H11OOa          C5H11Oa           nC3H7OO
                     nC3H7O            nC4H9OO           nC4H9O
                     C7H14e            iC4H8             iC8H17OOa
                     iC8H17Oa          C7H14f            C7H14g
                     iC8H17OOb         iC8H17Ob          iC8H17OOc
                     iC8H17Oc          C7H14h            iC8H17OOd
                     iC8H17Od          C7H15OOa          C7H15Oa
                     tC4H9OO           tC4H9O            iC4H9OO
                     iC4H9O            C5H11OOb          C5H11Ob
                     iC3H7OO           iC3H7O            C7H12a
                     C7H12b            eC8H15OOa         eC8H15OOb
                     eC8H15Oa          C4H9CHOa          CH3COCH2
                     eC8H15OOc         eC8H15Ob          aC3H4
                     eC8H15OOd         eC8H15Oc          C7H13Oa
                     HOC8H16OOa        C8H17OOa          C8H16cyOa
                     HOOC8H16OOa       C8H16OHc          HOC8H16OOb
                     C8H17OOb          HOOC8H16OOb       C7H15OOb
                     C7H15Ob           C7H13a            cC7H13OOa
                     cC7H13Oa          C7H13b            C7H13c
                     cC7H13OOb         cC7H13Ob          C7H13d
                     C7H13e            cC7H13OOc         cC7H13Oc
                     C7H13f            cC7H13OOd         cC7H13Od
                     C7H13g            cC7H13OOe         cC7H13Oe
                     C6H11b            C6H11OOa          C6H11Oa
                     aC7H13a           C6H11Ob           aC7H13b
                     aC7H13c           C6H13d            aC7H13d
                     C6H13e            C7H14i            C7H14OOHa
                     C7H14OOHb         C7H14OOHc         C7H14OOHd
                     nC7H15OOHa        C8H15Oa           aC3H5
                     C7H14OOHe         C7H14OOHf         C7H14OOHg
                     C7H14OOHh         C7H14OOHi         nC7H15OOHb
                     C5H11CHOa         aC6H11a           nC4H7a
                     C7H14j            C7H14OOHj         C7H14OOHk
                     C7H14OOHl         C7H14OOHm         C7H14OOHn
                     C7H14OOHo         nC7H15OOHc        C4H9CHOb
                     C2H5CHO           aC5H9a            C7H14OOHp
                     C7H14OOHq         C7H14OOHr         nC7H15OOHd
                     nC3H7CHO          C6H13OOb          C6H13Ob
                     C6H13OOc          C6H13Oc           C6H12OOHa
                     C6H12OOHb         C6H12OOHc         C6H12OOHd
                     C6H13OOHa         C5H11OOc          C5H11Oc
                     C5H10OOHa         C5H10OOHb         C5H10OOHc
                     C5H10OOHd         C5H11OOHa         C3H6OOHab
                     C3H6OOHac         nC3H7OOH          C4H8OOHab
                     C4H8OOHac         C4H8OOHad         nC4H9OOH
                     aC7H13e           C6H13f            C8H16OOHc
                     C8H16OOHd         C8H16OOHe         C8H16OOHf
                     iC8H17OOHa        aC7H13f           CH3CHCHO
                     aC7H13g           iC3H6vCHO         C8H16a
                     C8H16OOHg         C8H16OOHh         C8H16OOHi
                     iC8H17OOHb        iC3H7CHO          C8H16OOHj
                     C8H16OOHk         iC8H17OOHc        C6H14COa
                     CH3COCH3          C6H13g            C8H16OOHl
                     C8H16OOHm         C8H16OOHn         iC8H17OOHd
                     C7H14OOHs         C7H14OOHt         C7H14OOHu
                     C7H14OOHv         C7H15OOHa         C5H12COa
                     C4H8OOHti         tC4H9OOH          C4H8OOHit
                     C4H8OOHii         iC4H9OOH          C5H10OOHe
                     C5H11OOHb         C3H6OOHba         iC3H7OOH
                     C6H11c            aC7H11a           aC6H11b
                     C8H14OOHa         C8H14OOHb         eC8H15OOHa
                     C8H14OOHc         eC8H15OOHb        C3H5CHOa
                     C4H9COa           C8H14OOHd         C8H14OOHe
                     C8H14OOHf         eC8H15OOHc        C7H13h
                     eC8H15OOHd        C7H13i            C4H10CCOa
                     C8H15OHa          C8H15OHb          C8H15OHc
                     HOC8H15OOHa       HOC8H15OOHb       HOOC8H15aOHa
                     C8H17O3a          HOC8H15OOHc       HOC8H16OOHa
                     C6H14CCOa         CHOC7H14OOHa      C7H13OHa
                     C4H8OHa           HOC8H16OOc        C8H17OOc
                     HOC8H15OOHd       HOC8H15OOHe       C8H17O3b
                     HOC8H15OOHf       HOC8H16OOHb       C7H14aOHa
                     C7H14OOHw         C7H14OOHx         C7H14OOHy
                     C7H15OOHb         C5H11CHOb         C5H9a
                     C7H12c            C7H12d            C7H12OOHa
                     C7H12OOHb         C7H12OOHc         C7H12OOHd
                     cC7H13OOHa        COC6H13a          C5H9b
                     C5H9c             C7H12e            C7H12OOHe
                     C7H12OOHf         C7H12OOHg         C7H12OOHh
                     C7H12OOHi         C7H12OOHj         cC7H13OOHb
                     CHOC6H12a         CHOC6H12b         C4H7a
                     C5H9d             C7H12f            C7H12OOHk
                     C7H12OOHl         C7H12OOHm         C7H12OOHn
                     C7H12OOHo         C7H12OOHp         cC7H13OOHc
                     CHOC6H12c         CHOC6H12d         C6H10a
                     C7H12OOHq         C7H12OOHr         C7H12OOHs
                     C7H12OOHt         cC7H13OOHd        CHOC6H12e
                     C5H9e             C7H12OOHu         C7H12OOHv
                     C7H12OOHw         C7H12OOHx         cC7H13OOHe
                     C6H10b            C6H10OOHa         C6H10OOHb
                     C6H10OOHc         C6H11OOHa         CHOC5H10a
                     C4H10CCOb         C4H10COa          C6H13h
                     C6H13OOd          C6H13Od           C4H9CHOc
                     sC4H9             C6H13i            C6H13j
                     C6H13OOe          C6H13Oe           aC7H13h
                     C7H14cyOa         HOOC7H14OOa       C7H14cyOb
                     HOOC7H14OOb       C7H14cyOc         HOOC7H14OOc
                     C7H14cyOd         HOOC7H14OOd       C7H13j
                     C7H14cyOe         HOOC7H14OOe       C7H14cyOf
                     HOOC7H14OOf       C7H14cyOg         HOOC7H14OOg
                     C7H14cyOh         HOOC7H14OOh       HOOC7H14OOi
                     C5H11COa          C5H9Oa            C7H14cyOi
                     HOOC7H14OOj       C7H14cyOj         HOOC7H14OOk
                     HOOC7H14OOl       HOOC7H14OOm       HOOC7H14OOn
                     HOOC7H14OOo       C4H9COb           C2H5CO
                     HOOC7H14OOp       HOOC7H14OOq       HOOC7H14OOr
                     nC3H7CO           C3H6vCHO          C6H12b
                     C6H12c            C6H12OOHe         C6H12OOHf
                     C6H12OOHg         C6H12OOHh         C6H12OOHi
                     C6H13OOHb         C6H12OOHj         C6H12OOHk
                     C6H12OOHl         C6H12OOHm         C6H12OOHn
                     C6H13OOHc         C6H12cyOa         HOOC6H12OOa
                     C6H12cyOb         HOOC6H12OOb       C6H12cyOc
                     HOOC6H12OOc       C6H12cyOd         HOOC6H12OOd
                     C5H10b            C5H10OOHf         C5H10OOHg
                     C5H10OOHh         C5H10OOHi         C5H11OOHc
                     C5H10cyOa         HOOC5H10OOa       C5H10cyOb
                     HOOC5H10OOb       C5H10cyOc         HOOC5H10OOc
                     C5H10cyOd         HOOC5H10OOd       C3H6cyOab
                     HOOC3H6OOab       C3H6cyOac         HOOC3H6OOac
                     C4H8cyOab         HOOC4H8OOab       C4H8cyOac
                     HOOC4H8OOac       C4H8cyOad         HOOC4H8OOad
                     C6H13OOf          C6H13Of           C8H16cyOb
                     HOOC8H16OOc       C8H16cyOc         HOOC8H16OOd
                     C8H16cyOd         HOOC8H16OOe       C8H16cyOe
                     HOOC8H16OOf       CH3CHCO           iC2H6CCO
                     HOOC8H16OOg       C8H16cyOf         HOOC8H16OOh
                     C8H16cyOg         HOOC8H16OOi       iC3H7CO
                     HOOC8H16OOj       HOOC8H16OOk       C6H13vCOa
                     C5H11COb          C6H13k            C6H13OOg
                     C6H13Og           HOOC8H16OOl       HOOC8H16OOm
                     C8H16cyOh         HOOC8H16OOn       C7H14cyOk
                     HOOC7H14OOs       C7H14cyOl         HOOC7H14OOt
                     C7H14cyOm         HOOC7H14OOu       C7H14cyOn
                     HOOC7H14OOv       C5H11vCOa         C5H11vCOb
                     C4H9COc           C4H8cyOit         HOOC4H8OOti
                     HOOC4H8OOit       C4H8cyOii         HOOC4H8OOii
                     C5H10cyOe         HOOC5H10OOe       HOOC3H6OOba
                     C6H9Oa            C8H14cyOa         HOOC8H14OOa
                     C8H14cyOb         HOOC8H14OOb       HOOC8H14OOc
                     HOOC8H14OOd       OCCC2H5a          HOOC8H14OOe
                     HOOC8H14OOf       C7H12g            C8H14cyOc
                     HOOC8H14OOg       C8H14cyOd         HOOC8H14OOh
                     v2C3H5            aC8H14OHa         C4H7O2a
                     C7H15CHOa         C8H15Ob           aC8H14OHb
                     C7H14OHa          C8H16O2a          HOOHOC8H15OOa
                     C8H16O2b          HOOHOC8H15OOb     C8H16O2c
                     C7H14OOHz         C8H16O2d          HOOHOC8H15OOc
                     C8H15O2a          aC7H12OHa         C6H12OHa
                     HOC4H8OOa         C4H9OOa           HOC8H15OOHg
                     HOC8H15OOHh       HOC8H15OOHi       HOC8H16OOHc
                     C7H14OHb          C7H13OHb          C8H16O2e
                     HOOHOC8H15OOd     C8H16O2f          HOOHOC8H15OOe
                     CH2OOHa           C7H13OHc          C8H16O2g
                     HOOHOC8H15OOf     C3H5OHa           C7H14cyOo
                     HOOC7H14OOw       C7H14cyOp         HOOC7H14OOx
                     C7H14cyOq         HOOC7H14OOy       C5H10vCHOa
                     aC7H11b           aC7H11c           C6H12COa
                     HOOC7H12OOa       C6H12COb          C6H12COc
                     HOOC7H12OOb       C6H12COd          HOOC7H12OOc
                     C6H11CHOa         HOOC7H12OOd       COC4H9a
                     d13C4H6           C3H5a             C5H8a
                     aC7H11d           HOOC7H12OOe       C6H11CHOb
                     HOOC7H12OOf       HOOC7H12OOg       C6H11CHOc
                     HOOC7H12OOh       HOOC7H12OOi       C6H11CHOd
                     HOOC7H12OOj       CHOC4H8a          C3H6qCHOa
                     C5H8b             aC7H11e           HOOC7H12OOk
                     C6H11CHOe         HOOC7H12OOl       HOOC7H12OOm
                     C6H11CHOf         HOOC7H12OOn       HOOC7H12OOo
                     HOOC7H12OOp       CHOC4H8b          aC6H9a
                     HOOC7H12OOq       C6H11CHOg         HOOC7H12OOr
                     HOOC7H12OOs       HOOC7H12OOt       CHOC4H8c
                     HOOC7H12OOu       HOOC7H12OOv       HOOC7H12OOw
                     HOOC7H12OOx       aC6H9b            C5H10COa
                     HOOC6H10OOa       C5H9CHOa          HOOC6H10OOb
                     HOOC6H10OOc       C4H9vCOa          C4H9vCOb
                     C6H13l            C6H13OOh          C6H13Oh
                     C6H12d            C6H12OOHo         C6H12OOHp
                     C6H12OOHq         C6H12OOHr         C6H12OOHs
                     C6H13OOHd         C4H9COd           C4H8vCHOa
                     sC4H9OO           sC4H9O            n2C4H8
                     C6H13OOi          C6H13Oi           C6H13OOj
                     C6H13Oj           C6H12e            C6H12OOHt
                     C6H12OOHu         C6H12OOHv         C6H12OOHw
                     C6H13OOHe         C5H11d            C5H12CCOa
                     CHOC6H12OOHa      CHOC6H12OOHb      CHOC6H12OOHc
                     CH2CH2CHO         COC4H9b           CHOC6H12OOHd
                     COC6H13OOHa       COC6H13OOHb       C2H5COCH2
                     COC6H13OOHc       CH2CH2COCH3       COC6H13OOHd
                     COC6H13OOHe       C3H8CCOa          C2H5CHCO
                     COC6H13OOHf       COC6H13OOHg       COC6H13OOHh
                     COC6H13OOHi       COC6H13OOHj       COC6H13OOHk
                     COC6H13OOHl       COC6H13OOHm       COC6H13OOHn
                     aC6H11c           C6H12cyOe         HOOC6H12OOe
                     C6H12cyOf         HOOC6H12OOf       HOOC6H12OOg
                     C6H12cyOg         HOOC6H12OOh       HOOC6H12OOi
                     HOOC6H12OOj       HOOC6H12OOk       C6H12cyOh
                     HOOC6H12OOl       HOOC6H12OOm       HOOC6H12OOn
                     CHOC5H10OOHa      CHOC5H10OOHb      CHOC5H10OOHc
                     CHOC5H10OOHd      aC5H9b            C5H10cyOf
                     HOOC5H10OOf       C5H10cyOg         HOOC5H10OOg
                     HOOC5H10OOh       HOOC5H10OOi       CHOC4H8OOHa
                     CHOC4H8OOHb       CHOC4H8OOHc       CHOC4H8OOHd
                     CHOC2H4OOHb       CHOC2H4OOHc       CHOC3H6OOHab
                     CHOC3H6OOHac      CHOC3H6OOHad      C6H12f
                     C6H12g            C6H12OOHx         C6H12OOHy
                     C6H12OOHz         C6H12OOHaa        C6H13OOHf
                     C4H9CHOd          CHOC7H14OOHb      CHOC7H14OOHc
                     CHOC4H8d          iC3H6qCHO         CHOC7H14OOHd
                     CHOC7H14OOHe      COC7H15OOHa       COC7H15OOHb
                     COC7H15OOHc       C5H10c            C6H13OOk
                     C6H13Ok           C6H12h            C6H12OOHab
                     C6H12OOHac        C6H13OOHg         CHOC7H14OOHf
                     CHOC7H14OOHg      CHOC7H14OOHh      HOOC7H14OOz
                     C4H7b             CHOC6H12OOHe      HOOC7H14OOaa
                     COC6H13OOHo       C5H12CCOb         HOOC7H14OOab
                     C3H8CCOb          CHOC3H6OOHit      CHOC3H6OOHii
                     CHOC4H8OOHe       CH3COCH2OOH       C3H6CCOa
                     COC7H13OOHa       COC7H13OOHb       CHOC7H12OOHa
                     CHOC7H12OOHb      C3H3O2a           CHOC7H12OOHc
                     CHOC7H12OOHd      aC7H11f           C6H11d
                     CHOC7H12OOHe      C3H4vCHOa         CHOC7H12OOHf
                     C3H5O2a           HOC2H5CCOa        HOC2H5COa
                     C7H15COa          HOC7H14OOa        C7H15OOc
                     HOOHOC8H15OOg     C4H7OHa           HOOHOC8H15OOh
                     HOCOC7H14OOHa     HOC6H13CCOa       HOOHOC8H15OOi
                     HOC3H6CHOa        C3H6aOHa          HOC6H12OOa
                     C6H13OOl          C4H9O3a           HOC4H7OOHa
                     HOC4H8OOHa        C8H15OOHa         C7H13OHd
                     C8H16O2h          HOOHOC8H15OOj     C8H16O2i
                     HOOHOC8H15OOk     HOOHOC8H15OOl     HOC7H14OOb
                     C7H15OOd          aC7H12OHb         C3H5O2b
                     HOCHOC7H13OOHa    HOC3H5CHOa        HOCHOC7H13OOHb
                     C6H12aOHa         HOCHOC7H13OOHc    aC3H4OHa
                     COC6H13OOHp       COC6H13OOHq       C5H12CCOc
                     COC6H13OOHr       CHOC5H10vCOa      C6H9Ob
                     C6H11vCOa         C6H11vCOb         C6H11vCOc
                     C6H11vCOd         C6H11vCOe         C6H11vCOf
                     COC6H11OOHa       C6H11vCOg         COC6H11OOHb
                     C6H11COa          C6H10vCHOa        CHOC5H10vCOb
                     COC6H11OOHc       C6H11COb          COC6H11OOHd
                     C6H11COc          COC6H11OOHe       C6H11COd
                     COC6H11OOHf       C6H10OvCHOa       COC6H11OOHg
                     C6H11COe          COC6H11OOHh       COC6H11OOHi
                     C6H11COf          COC6H11OOHj       COC6H11OOHk
                     COC6H11OOHl       C3H5CHOb          COC6H11OOHm
                     C6H11COg          COC6H11OOHn       COC6H11OOHo
                     COC6H11OOHp       C4H8OOHbd         CHOC6H10OOHa
                     CHOC6H10OOHb      CHOC6H10OOHc      CHOC6H10OOHd
                     C5H8OvCHOa        COC5H9OOHa        C5H9COa
                     COC5H9OOHb        COC5H9OOHc        C6H13OOm
                     C6H13Ol           C6H12OOHad        C6H12OOHae
                     C6H12OOHaf        C6H12OOHag        C6H13OOHh
                     C5H11e            aC6H11d           C6H12cyOi
                     HOOC6H12OOo       C6H12cyOj         HOOC6H12OOp
                     C6H12cyOk         HOOC6H12OOq       C6H12cyOl
                     HOOC6H12OOr       C6H12cyOm         HOOC6H12OOs
                     C3H8CCOc          C2H5COCH3         C4H8OOHbc
                     C4H8OOHba         sC4H9OOH          C6H12i
                     C6H12OOHah        C6H12OOHai        C6H12OOHaj
                     C6H12OOHak        C6H12OOHal        C6H13OOHi
                     C6H12j            C6H12OOHam        C6H12OOHan
                     C6H12OOHao        C6H13OOHj         C5H11f
                     aC6H11e           C6H12cyOn         HOOC6H12OOt
                     C6H12cyOo         HOOC6H12OOu       C6H12cyOp
                     HOOC6H12OOv       C6H12cyOq         HOOC6H12OOw
                     C5H11OOd          C5H11Od           C7H13O2a
                     C7H13O2b          C7H13O2c          C7H13O2d
                     C7H13O2e          C7H13O2f          C7H13O2g
                     C7H13O2h          C7H13O2i          C7H13O2j
                     C7H13O2k          C7H13O2l          C7H13O2m
                     C7H13O2n          C7H13O2o          C7H13O2p
                     C7H13O2q          C7H13O2r          COC5H11OOHa
                     COC5H11OOHb       COC5H11OOHc       COC5H11OOHd
                     COC5H11OOHe       COC5H11OOHf       COC5H11OOHg
                     COC5H11OOHh       COC5H11OOHi       COC5H11OOHj
                     C6H11O2a          C6H11O2b          C6H11O2c
                     C6H11O2d          COC4H9OOHa        COC4H9OOHb
                     COC4H9OOHc        COC4H9OOHd        C5H9O2a
                     C5H9O2b           C5H9O2c           C5H9O2d
                     C3H5O2c           C3H5O2d           C4H7O2b
                     C4H7O2c           C4H7O2d           aC6H11f
                     C6H12cyOr         HOOC6H12OOx       C6H12cyOs
                     HOOC6H12OOy       HOOC6H12OOz       C6H12cyOt
                     HOOC6H12OOaa      C4H8vCHOb         C8H15O2b
                     C8H15O2c          C8H15O2d          C8H15O2e
                     C8H15O2f          C8H15O2g          C8H15O2h
                     aC5H9c            C6H12OOHap        C6H12OOHaq
                     C6H12OOHar        C6H13OOHk         C5H11g
                     C6H12cyOu         HOOC6H12OOab      C6H12cyOv
                     HOOC6H12OOac      C8H15O2i          C8H15O2j
                     C8H15O2k          COC6H13OOHs       C7H13O2s
                     C7H13O2t          CHOC6H12OOHf      C4H7O2e
                     C4H7O2f           C5H9O2e           CH3COCH2O
                     C8H13O2a          C8H13O2b          C8H13O2c
                     C8H13O2d          C8H13O2e          C8H13O2f
                     C6H9Oc            C8H13O2g          C3H3O2b
                     C8H13O2h          HOHCCOa           C3H6OHa
                     HOC2H4vCOa        HOH2OCOa          C7H13OHe
                     C7H13OHf          HOC7H13OOHa       HOC7H13OOHb
                     HOOC7H13aOHa      C7H15O3a          HOC7H14OOHa
                     HOCOC7H14OOHb     aC4H6OHa          HOCHOC7H13OOHd
                     C8H15O3a          HOC6H13COa        HOCHOC7H13OOHe
                     HOC2H6OCOa        C6H11OHa          C6H11OHb
                     HOC6H11OOHa       C6H13O3a          HOC6H11OOHb
                     HOC6H11OOHc       HOC6H12OOHa       HOC4H8CHOa
                     C4H7OOHa          C4H8O2a           HOOHOC4H7OOa
                     C8H15Oc           HOCHOC7H13OOHf    HOCHOC7H13OOHg
                     HOCHOC7H13OOHh    HOC7H13OOHc       C7H15O3b
                     HOC7H13OOHd       HOC7H13OOHe       HOC7H14OOHb
                     HOC5H11COa        C2H3O2a           HOCH3CCOa
                     C2H4O2a           C8H15O3b          C8H15O3c
                     C2H3OHa           C8H15O3d          C7H13O2u
                     C7H13O2v          C7H13O2w          OCCC3H7CHOa
                     OCCC4H9a          OCCC5H11a         OCCC4H9CHOa
                     OCCC5H11b         OCCC4H10COa       C4H8CCOa
                     C4H7CHOa          OCCC5H11c         OCCC4H9CHOb
                     OCCC5H11d         OCCC4H9CHOc       C7H11O2a
                     OCCC5H11e         OCCC4H9CHOd       C7H11O2b
                     C5H10CCOa         C7H11O2c          C6H11e
                     C7H11O2d          C6H11f            C7H11O2e
                     C7H11O2f          C5H9OCHOa         C7H11O2g
                     C6H11g            C7H11O2h          C7H11O2i
                     C6H11h            C7H11O2j          C7H11O2k
                     C7H11O2l          C3H5COa           C7H11O2m
                     C6H11i            C7H11O2n          C7H11O2o
                     C7H11O2p          HOOC4H8OObd       C7H11O2q
                     C7H11O2r          C7H11O2s          C7H11O2t
                     C4H7OCHOa         C6H9O2a           C6H9O2b
                     C6H9O2c           C6H12k            C6H12OOHas
                     C6H12OOHat        C6H12OOHau        C6H12OOHav
                     C6H13OOHl         HOOC6H12OOad      C5H10d
                     C6H12cyOw         HOOC6H12OOae      C6H12cyOx
                     HOOC6H12OOaf      HOOC6H12OOag      C5H11OOe
                     C5H11Oe           C4H10CCOc         CHOC5H10OOHe
                     CHOC5H10OOHf      CHOC5H10OOHg      CHOC5H10OOHh
                     CHOC5H10OOHi      CH3CHCOCH3        C4H8cyObc
                     HOOC4H8OObc       HOOC4H8OOba       aC6H11g
                     C6H12cyOy         HOOC6H12OOah      C6H12cyOz
                     HOOC6H12OOai      HOOC6H12OOaj      HOOC6H12OOak
                     C6H12cyOaa        HOOC6H12OOal      aC6H11h
                     C6H12cyOab        HOOC6H12OOam      HOOC6H12OOan
                     HOOC6H12OOao      C5H11OOf          C5H11Of
                     C4H10CCOd         CHOC5H10OOHj      CHOC5H10OOHk
                     CHOC5H10OOHl      CHOC5H10OOHm      C5H10OOHj
                     C5H10OOHk         C5H10OOHl         C5H10OOHm
                     C5H11OOHd         C3H5OCHOa         C3H7COCHOa
                     C4H9COCHOa        C4H9COCHOb        COC5H11a
                     C5H11vCOc         COC5H11b          C6H11O2e
                     C6H11O2f          C6H11O2g          C6H11O2h
                     C6H11O2i          C6H11O2j          C6H11O2k
                     C6H11O2l          C6H11O2m          C6H11O2n
                     C5H9O2f           C5H9O2g           C5H9O2h
                     C5H9O2i           COC5H11OOHk       COC5H11OOHl
                     COC5H11OOHm       C4H10CCOe         COC5H11OOHn
                     C5H11COCHOa       CHOC6H12f         C6H12vCHOa
                     C6H13vCOb         C6H13vCOc         C5H10e
                     C6H12cyOac        HOOC6H12OOap      HOOC6H12OOaq
                     C6H12cyOad        HOOC6H12OOar      C5H11OOg
                     C5H11Og           CHOC5H10OOHn      CHOC5H10OOHo
                     C3H5OCHOb         CHOC6H12g         C6H12vCHOb
                     C7H13O2x          C4H9COCHOc        C5H11vCOd
                     C7H13O2y          C6H11vCOh         C6H11vCOi
                     C3H3OCHOa         C6H10vCHOb        CHOC6H10a
                     C3H6CCOb          C6H10vCHOc        CHOC6H10b
                     HOC3H6OOa         C3H7OOa           aC7H12OHc
                     C6H13CHOa         C7H14O2a          HOOHOC7H13OOa
                     C7H14O2b          HOOHOC7H13OOb     CHOC6H12OOHg
                     C7H14O2c          C6H12OOHaw        C8H15O3e
                     C8H15O3f          HOC6H12vCOa       HOC6H12vCOb
                     HOC6H12vCOc       C8H15O3g          aC6H10OHa
                     C5H10OHa          C6H11OOHb         C6H12O2a
                     HOOHOC6H11OOa     C6H12O2b          HOOHOC6H11OOb
                     C6H11OOHc         C6H12O2c          HOOHOC6H11OOc
                     HOC3H8OCOa        HOC4H7vCHOa       iC4H7Oa
                     HOCHOC3H5OOHa     C8H15O3h          C8H15O3i
                     C8H15O3j          C7H13OOHa         C7H14O2d
                     HOOHOC7H13OOc     C7H14O2e          HOOHOC7H13OOd
                     C7H13OOHb         C7H14O2f          HOOHOC7H13OOe
                     HOC5H10vCOa       HOC5H10vCOb       HOC6H11CHOa
                     HOC6H11vCHOa      CH3COCHOa         COC5H11c
                     OCCC3H7COa        OCCC2H5b          OCCC4H9COa
                     OCCC3H7a          COC5H11d          C4H7COa
                     OCCC3H7b          OCCC4H9COb        OCCC4H9COc
                     CHOCOC5H10a       CHOCOC5H10b       OCCC3H7c
                     OCCC4H9COd        CHOC5H10vCOc      COC5H11COa
                     CHOC5H10vCOd      C6H11OCOa         C5H9OCOa
                     C5H8OvCHOb        C6H11OCOb         C6H11OvCOa
                     CHOCOC5H10c       CHOCOC5H10d       CHOC5H10vCOe
                     C6H11OCOc         COC5H9a           C6H11OCOd
                     CHOC5H10vCOf      COC6H11Oa         COC5H9b
                     COC3H7OOHbd       CHOCOC5H10e       C6H10OvCHOb
                     CHOC6H10Oa        CHOC6H10Ob        CHOC6H10Oc
                     C4H7OCOa          C4H6OvCHOa        C5H9OCOb
                     CHOC4H8vCOa       CHOCOC4H8a        C6H12cyOae
                     HOOC6H12OOas      HOOC6H12OOat      HOOC6H12OOau
                     HOOC6H12OOav      CHOC5H10OOHp      aC5H9d
                     CHOC5H10OOHq      CHOC5H10OOHr      CHOC5H10OOHs
                     C5H10OOHn         C5H10OOHo         C5H10OOHp
                     C5H11OOHe         C6H11O2o          C6H11O2p
                     C6H11O2q          C6H11O2r          C6H11O2s
                     COC3H7OOHbc       COC3H7OOHba       COC5H11OOHo
                     COC5H11OOHp       COC5H11OOHq       COC5H11OOHr
                     COC5H11OOHs       C4H10CCOf         CHOC5H10OOHt
                     CHOC5H10OOHu      CHOC5H10OOHv      C5H10OOHq
                     C5H10OOHr         C5H11OOHf         C6H11O2t
                     C6H11O2u          C6H11O2v          C6H11O2w
                     C5H10cyOh         HOOC5H10OOj       C5H10cyOi
                     HOOC5H10OOk       C5H10cyOj         HOOC5H10OOl
                     C5H10cyOk         HOOC5H10OOm       C3H5OCOa
                     C3H4OvCHOa        COC3H7COa         COC4H9COa
                     COC4H9COb         C6H11O2x          C6H11O2y
                     C6H11O2z          C6H11O2aa         COC5H11COb
                     CHOC5H10OOHw      CHOC5H10OOHx      CHOC5H10OOHy
                     C5H10OOHs         C5H10OOHt         C5H10OOHu