"""
Incorporates the new C1-C5 mechanism by Henry Curran with few corrections by WJP
Incorporates the updated IC8, NC7 mechs
Incorporates the 1 & 2-pentene, 1, 2 & 3-hexene mechs
Incorporates the latest changes in Toluene (Seshadri Flame)

1387 Species, 5739 Reactions



LLNL-MI-536371

"""

units(length='cm', time='s', quantity='mol', act_energy='cal/mol')

ideal_gas(name='gas',
          elements="C H N O Ar He Ne",
          species="""H               H2              O
                     O2              OH              H2O
                     N2              HO2             H2O2
                     CO              CO2             CH2O
                     HCO             HO2CHO          O2CHO
                     HOCHO           OCHO            HOCH2O
                     CH3OH           CH2OH           CH3O
                     CH3O2H          CH3O2           CH4
                     CH3             CH2             CH2(S)
                     C               CH              C2H6
                     C2H5            C2H4            C2H3
                     C2H2            C2H             CH3CHO
                     CH3CO           CH2CHO          CH2CO
                     HCCO            HCCOH           CH3CO3H
                     CH3CO3          CH3CO2          C2H5OH
                     C2H5O           PC2H4OH         SC2H4OH
                     O2C2H4OH        C2H5O2H         C2H5O2
                     C2H4O2H         C2H4O1-2        C2H3O1-2
                     CH3COCH3        CH3COCH2        CH3COCH2O2
                     CH3COCH2O2H     CH3COCH2O       C2H3CHO
                     C2H3CO          C2H5CHO         C2H5CO
                     CH3OCH3         CH3OCH2         CH3OCHO
                     CH3OCO          C3H8            IC3H7
                     NC3H7           C3H6            C3H5-A
                     C3H5-S          C3H5-T          C3H4-P
                     C3H4-A          C3H3            C3H2
                     C3H5O           C3H6OOH1-2      C3H6OOH1-3
                     C3H6OOH2-1      C3H6OOH1-2O2    C3H6OOH1-3O2
                     C3H6OOH2-1O2    NC3H7O2H        IC3H7O2H
                     NC3H7O2         IC3H7O2         NC3H7O
                     IC3H7O          C3H6O1-2        C3H6O1-3
                     C3KET12         C3KET13         C3KET21
                     C3H6OH          HOC3H6O2        CH3CHCO
                     AC3H5OOH        C4H10           C4H8-1
                     C4H8-2          PC4H9           SC4H9
                     C4H71-1         C4H71-2         C4H71-3
                     C4H71-4         C4H72-2         C4H6
                     PC4H9O2H        PC4H9O2         SC4H9O2
                     PC4H9O          C4H7O           C4H8O1-3
                     C4H8O1-4        PC4H8OH         SC4H8OH
                     C4H8OH-1O2      C4H8OH-2O2      C4H8OOH1-2
                     C4H8OOH1-3      C4H8OOH1-4      C4H8OOH1-2O2
                     C4H8OOH1-3O2    NC4KET13        C2H5COCH3
                     C2H5COCH2       CH2CH2COCH3     CH3CHCOCH3
                     C2H3COCH3       NC3H7CHO        NC3H7CO
                     C3H6CHO-1       C3H6CHO-2       C3H6CHO-3
                     SC3H5CHO        SC3H5CO         CH2CH2CHO
                     IC4H10          IC4H9           TC4H9
                     IC4H8           IC4H7           TC4H9O2
                     IC4H9O2         TC4H8O2H-I      IC4H8O2H-I
                     IC4H8O2H-T      IC4H8O          IC4H9O
                     TC4H9O          IC4H9O2H        TC4H9O2H
                     IC4H7O          IC4H8OH         IO2C4H8OH
                     IC3H7CHO        TC3H6CHO        IC3H7CO
                     IC3H6CHO        IC4H8OOH-IO2    IC4KETII
                     IC4H7OH         IC4H6OH         IC3H5CHO
                     IC3H5CO         TC3H6OCHO       IC3H6CO
                     IC4H7OOH        TC3H6OH         IC3H5OH
                     TC3H6O2CHO      TC3H6O2HCO      IC3H5O2HCHO
                     CH2CCH2OH       TC4H8CHO        O2C4H8CHO
                     O2HC4H8CO       NC5H12          C5H11-1
                     C5H11-2         C5H11-3         C5H10-1
                     C5H10-2         C5H81-3         C5H91-3
                     C5H91-4         C5H91-5         C5H92-4
                     C5H92-5         C5H9O1-3        C5H9O2-4
                     C5H11O2H-1      C5H11O2-1       C5H11O2-2
                     C5H11O2-3       C5H11O-1        C5H10OOH1-2
                     C5H10OOH1-3     C5H10OOH1-4     C5H10OOH2-3
                     C5H10OOH2-4     C5H10OOH3-2     C5H10OOH3-1
                     C5H10O1-3       C5H10O1-4       C5H10OOH1-2O2
                     C5H10OOH1-3O2   C5H10OOH1-4O2   C5H10OOH2-3O2
                     C5H10OOH2-4O2   C5H10OOH3-1O2   C5H10OOH3-2O2
                     NC5KET13        NC5KET14        NC5KET23
                     NC5KET24        NC5KET31        NC5KET32
                     C5H10OH-1       C5H10OH-2       O2C5H10OH-1
                     O2C5H10OH-2     NC6H14          C6H13-1
                     C6H13-2         C6H13-3         C6H12-1
                     C6H12-2         C6H12-3         C6H111-3
                     C6H111-4        C6H111-5        C6H111-6
                     C6H112-4        C6H112-5        C6H112-6
                     C6H113-1        C6H11O1-3       C6H11O2-4
                     C6H12O1-3       C6H12O1-4       C6H13O2H-1
                     C6H13O2-1       C6H12OOH1-2     C6H12OOH1-3
                     C6H12OOH1-4     C6H12OOH1-3O2   C6H12OOH1-4O2
                     NC6KET13        NC6KET14        C6H13O-1
                     C6H12OH-3       O2C6H12OH-3     NC4H9CHO
                     NC4H9CO         C4H8CHO-2       C4H8CHO-3
                     C4H8CHO-4       AC3H5CO         NC3H7COCH3
                     NC3H7COCH2      C3H6COCH3-2     C3H6COCH3-3
                     C2H5COC2H5      C2H5COC2H4P     NC7H16
                     C7H15-1         C7H15-2         C7H15-3
                     C7H15-4         C7H14-1         C7H14-2
                     C7H14-3         C7H131-3        C7H131-4
                     C7H131-5        C7H131-6        C7H131-7
                     C7H132-4        C7H132-5        C7H132-6
                     C7H132-7        C7H133-1        C7H133-5
                     C7H133-6        C7H133-7        C7H13O1-3
                     C7H13O2-4       C7H13O3-5       C7H15O2-1
                     C7H15O2-2       C7H15O2-3       C7H15O2-4
                     C7H15O2H-1      C7H15O2H-2      C7H15O2H-3
                     C7H15O2H-4      C7H15O-1        C7H15O-2
                     C7H15O-3        C7H15O-4        C7H14OOH1-2
                     C7H14OOH1-3     C7H14OOH1-4     C7H14OOH2-1
                     C7H14OOH2-3     C7H14OOH2-4     C7H14OOH2-5
                     C7H14OOH3-1     C7H14OOH3-2     C7H14OOH3-4
                     C7H14OOH3-5     C7H14OOH3-6     C7H14OOH4-1
                     C7H14OOH4-2     C7H14OOH4-3     C7H14OOH1-2O2
                     C7H14OOH1-3O2   C7H14OOH1-4O2   C7H14OOH2-1O2
                     C7H14OOH2-3O2   C7H14OOH2-4O2   C7H14OOH2-5O2
                     C7H14OOH3-1O2   C7H14OOH3-2O2   C7H14OOH3-4O2
                     C7H14OOH3-5O2   C7H14OOH3-6O2   C7H14OOH4-1O2
                     C7H14OOH4-2O2   C7H14OOH4-3O2   C7H14O1-3
                     C7H14O1-4       C7H14O2-4       C7H14O2-5
                     C7H14O3-5       NC7KET12        NC7KET13
                     NC7KET14        NC7KET21        NC7KET23
                     NC7KET24        NC7KET25        NC7KET31
                     NC7KET32        NC7KET34        NC7KET35
                     NC7KET36        NC7KET41        NC7KET42
                     NC7KET43        C7H14OH-1       C7H14OH-2
                     C7H14OH-3       O2C7H14OH-1     O2C7H14OH-2
                     O2C7H14OH-3     NC5H11CHO       NC5H11CO
                     NC4H9COCH2      C4H7OOH1-4      C4H7O1-4
                     C5H9OOH1-4      C5H9O1-4        C5H9OOH1-5
                     C5H9O1-5        C6H11OOH1-4     C6H11O1-4
                     C5H91-1         C4H7CHO1-1      C4H7CO1-1
                     C4H6CHO1-14     C4H6CHO1-13     NC3H7COC2H4P
                     CHCHCHO         C6H101-3        C6H101-4
                     C6H101-5        C6H102-4        ETES1
                     C6H112O2H-4     C6H113O2H-2     C6H111O2-4
                     C6H102OOH5-4    C6H102OOH4-5    C5H81-4
                     C5H91O2-3       C5H91O2-4       C5H91O2-5
                     C5H81OOH3-4     C5H81OOH3-5     C5H81OOH4-3
                     C5H92O2-1       C5H81OOH3-4O2   C5H81OOH3-5O2
                     NC5D1KET34      NC5D1KET35      CY3C5H8O
                     C5H92O2-4       C5H92O2-5       C5H82OOH4-5
                     C5H82OOH5-4     C5H82OOH4-5O2   C5H82OOH5-4O2
                     NC5D2KET45      IC5H12          AC5H11
                     BC5H11          CC5H11          DC5H11
                     AC5H10          BC5H10          CC5H10
                     AC5H9-A2        AC5H9-C         AC5H9-D
                     CC5H9-A         CC5H9-B         AC5H9O-A2
                     AC5H9O-C        CC5H9O-B        BC5H11O2
                     CH3CHCHO        CC6H13          AC6H12
                     BC6H12          CC6H12          DC6H12
                     AC6H11-A2       AC6H11-C        AC6H11-E
                     CC6H11-A        CC6H11-B        DC6H11-C
                     AC6H11O-C       CC6H11O-B       DC6H11O-C
                     CC6H13O2        TC3H6CH2COCH3   IC4H7-I1
                     XC7H15          YC7H15          ZC7H15
                     XC7H14          YC7H14          XC7H13-X1
                     XC7H13-Z        XC7H13-X2       XC7H13-Y2
                     YC7H13-Y2       YC7H13-X2       XC7H13O-Z
                     YC7H13O-Y2      YC7H15O2        ZC7H15O2
                     YC7H15O2H       YC7H15O         YC7H14OOH-X1
                     YC7H14OOH-Z     YC7H14OOH-Y2    YC7H14OOH-X2
                     YC7H14OOH-Y2O2  X-Y2C7H14O      Y-YC7H14O
                     ACC6H10         ACC6H9-A        ACC6H9-D
                     NEOC5H11        NEOC5H11O2H     NEOC5H11O2
                     NEOC5H11O       NEOC5H10OOH     NEOC5H10OOH-O2
                     NEOC5H9Q2-N     NEOC5KET        NEOC5KETOX
                     NEOC5KEJOL      NEOC6H12        NEOC6H11
                     TC4H9CHO        TC4H9CO         C4H7CHO2-2
                     C4H7CO2-2       C4H6CHO2-21     C4H6CHO2-24
                     CH2CCHCH3       IC3H6CHCHO      IC3H6CHCO
                     NC7H15          OC7H15          PC7H15
                     OC7H14          PC7H14          OC7H13-N
                     PC7H13-N        PC7H13-O        PC7H15O2
                     PC7H15O2H       PC7H15O         PC7H14OOH-N
                     PC7H14OOH-O     PC7H14OOH-NO2   PC7H14OOH-OO2
                     N-PC7H14O       NEOC7KETPN      NEOC7KETPO
                     IC8H18          AC8H17          BC8H17
                     CC8H17          DC8H17          IC8H16
                     JC8H16          IC8H15          AC8H17O2
                     BC8H17O2        CC8H17O2        DC8H17O2
                     AC8H17O2H       BC8H17O2H       CC8H17O2H
                     DC8H17O2H       AC8H17O         BC8H17O
                     CC8H17O         DC8H17O         AC8H16OOH-A
                     AC8H16OOH-B     AC8H16OOH-C     BC8H16OOH-C
                     BC8H16OOH-A     BC8H16OOH-D     CC8H16OOH-D
                     CC8H16OOH-B     CC8H16OOH-A     DC8H16OOH-C
                     DC8H16OOH-D     DC8H16OOH-B     IC8ETERAA
                     IC8ETERAB       IC8ETERAC       IC8ETERBC
                     IC8ETERBD       IC8ETERDD       AC8H16OOH-AO2
                     AC8H16OOH-BO2   AC8H16OOH-CO2   BC8H16OOH-CO2
                     BC8H16OOH-AO2   BC8H16OOH-DO2   CC8H16OOH-BO2
                     CC8H16OOH-AO2   DC8H16OOH-CO2   DC8H16OOH-DO2
                     DC8H16OOH-BO2   IC8KETAA        IC8KETAB
                     IC8KETAC        IC8KETBA        IC8KETBC
                     IC8KETBD        IC8KETDB        IC8KETDD
                     CC8H16OH-B      BC8H16OH-C      CC8H16OH-BO2
                     CC8H16O-BO2H    CC8H16OH-D      DC8H16OH-C
                     BC8H16OH-CO2    BC8H16O-CO2H    CC8H16OH-DO2
                     CC8H16O-DO2H    DC8H16OH-CO2    DC8H16O-CO2H
                     DC6H12CHO-D     IC3H7COC3H7-I   IC3H7COC3H6-T
                     TC4H9COC2H4S    NEOC5H11COCH3   HC6H12CHO
                     YC7H13OOH-X1    YC7H13O-X1      XC7H13OOH-Z
                     YC7H13OOH-X2    YC7H13O-X2      CC6H11-D
                     IC3H6CHCOCH3    AC3H5CHCOCH3    IC3H6CHCOCH2
                     C6H5C2H         C4H2            NC4H3
                     C7H6            C6H5CH3         C6H5CH2J
                     OC6H4CH3        HOC6H4CH3       OC6H4O
                     HOC6H4CH2       RODC6JDO        OXCCXCCJXO
                     CY13PD          C6H5OH          STYR
                     BICPDJ          CYPDONE         HCOCJXO
                     CYC5H5OJ        CYC5H5OH        CYC5H4OH
                     CPDJONE         CXCCXCXO        CJXCCXCXO
                     OXCCXCCXO       OXCCXCCJCXO     C4H4
                     NC4H5           C6H5CH2OOJ      C6H5CH2OOH
                     C6H5CH2OJ       C6H5CH2OH       C6H5CHOH
                     C6H5CHO         HOC6H4CH2OOH    C6H4OH
                     C6H5O2          C6H6            CY13PD5J
                     C6H5OJ          FULVENE         CYC5H8
                     CH2CY24PD       CYC6H7          CXCCXCCJ
                     LINC6H7         CXCCXCC         CH3CY24PD
                     CYC5H7U1        OXCJCXCCXC      CJXCCXO
                     HCOHCO          CPDOOH          OXCCXCCXCJ
                     CXOCCCJCXO      C14H14          C14H13
                     STYLBEN         XYLENE          IND
                     NAPH            CPDCXC          FULVENYL
                     C6H5            CPDJCH3         C6H4CH3
                     C6H5CJO         C6H5C2H5        C12H10
                     PHCCHPH         O2C6H4CH3       RODC6J(C)DO
                     OCCXCCXCJC      C6H4            CJCXCC#C
                     OC6H4CH2        CR1             CR2
                     CR3             CR4             C10H10
                     C6H5C2H2        PHENA           C6H5C2H4P
                     C6H5C2H4S""",
          reactions='all',
          transport='Mix',
          initial_state=state(temperature=300.0, pressure=OneAtm))

#-------------------------------------------------------------------------------
# Species data
#-------------------------------------------------------------------------------

species(name='H',
        atoms='H:1',
        thermo=(NASA([300.00, 1000.00],
                     [ 2.50000000E+00,  0.00000000E+00,  0.00000000E+00,
                       0.00000000E+00,  0.00000000E+00,  2.54716300E+04,
                      -4.60117600E-01]),
                NASA([1000.00, 5000.00],
                     [ 2.50000000E+00,  0.00000000E+00,  0.00000000E+00,
                       0.00000000E+00,  0.00000000E+00,  2.54716300E+04,
                      -4.60117600E-01])),
        transport=gas_transport(geom='atom',
                                diam=2.05,
                                well_depth=145.0),
        note='120186')

species(name='H2',
        atoms='H:2',
        thermo=(NASA([300.00, 1000.00],
                     [ 3.29812400E+00,  8.24944200E-04, -8.14301500E-07,
                      -9.47543400E-11,  4.13487200E-13, -1.01252100E+03,
                      -3.29409400E+00]),
                NASA([1000.00, 5000.00],
                     [ 2.99142300E+00,  7.00064400E-04, -5.63382900E-08,
                      -9.23157800E-12,  1.58275200E-15, -8.35034000E+02,
                      -1.35511000E+00])),
        transport=gas_transport(geom='linear',
                                diam=2.92,
                                well_depth=38.0,
                                polar=0.79,
                                rot_relax=280.0),
        note='121286')

species(name='O',
        atoms='O:1',
        thermo=(NASA([300.00, 1000.00],
                     [ 2.94642900E+00, -1.63816600E-03,  2.42103200E-06,
                      -1.60284300E-09,  3.89069600E-13,  2.91476400E+04,
                       2.96399500E+00]),
                NASA([1000.00, 5000.00],
                     [ 2.54206000E+00, -2.75506200E-05, -3.10280300E-09,
                       4.55106700E-12, -4.36805200E-16,  2.92308000E+04,
                       4.92030800E+00])),
        transport=gas_transport(geom='atom',
                                diam=2.75,
                                well_depth=80.0),
        note='120186')

species(name='O2',
        atoms='O:2',
        thermo=(NASA([300.00, 1000.00],
                     [ 3.21293600E+00,  1.12748600E-03, -5.75615000E-07,
                       1.31387700E-09, -8.76855400E-13, -1.00524900E+03,
                       6.03473800E+00]),
                NASA([1000.00, 5000.00],
                     [ 3.69757800E+00,  6.13519700E-04, -1.25884200E-07,
                       1.77528100E-11, -1.13643500E-15, -1.23393000E+03,
                       3.18916600E+00])),
        transport=gas_transport(geom='linear',
                                diam=3.458,
                                well_depth=107.4,
                                polar=1.6,
                                rot_relax=3.8),
        note='121386')

species(name='OH',
        atoms='H:1 O:1',
        thermo=(NASA([300.00, 1710.00],
                     [ 3.41896226E+00,  3.19255801E-04, -3.08292717E-07,
                       3.64407494E-10, -1.00195479E-13,  3.45264448E+03,
                       2.54433372E+00]),
                NASA([1710.00, 5000.00],
                     [ 2.85376040E+00,  1.02994334E-03, -2.32666477E-07,
                       1.93750704E-11, -3.15759847E-16,  3.69949720E+03,
                       5.78756825E+00])),
        transport=gas_transport(geom='linear',
                                diam=2.75,
                                well_depth=80.0),
        note='7/13/0RUCIC')

species(name='H2O',
        atoms='H:2 O:1',
        thermo=(NASA([300.00, 1000.00],
                     [ 3.38684200E+00,  3.47498200E-03, -6.35469600E-06,
                       6.96858100E-09, -2.50658800E-12, -3.02081100E+04,
                       2.59023300E+00]),
                NASA([1000.00, 5000.00],
                     [ 2.67214600E+00,  3.05629300E-03, -8.73026000E-07,
                       1.20099600E-10, -6.39161800E-15, -2.98992100E+04,
                       6.86281700E+00])),
        transport=gas_transport(geom='nonlinear',
                                diam=2.605,
                                well_depth=572.4,
                                dipole=1.844,
                                rot_relax=4.0),
        note='20387')

species(name='N2',
        atoms='N:2',
        thermo=(NASA([300.00, 1000.00],
                     [ 3.29867700E+00,  1.40824000E-03, -3.96322200E-06,
                       5.64151500E-09, -2.44485500E-12, -1.02090000E+03,
                       3.95037200E+00]),
                NASA([1000.00, 5000.00],
                     [ 2.92664000E+00,  1.48797700E-03, -5.68476100E-07,
                       1.00970400E-10, -6.75335100E-15, -9.22797700E+02,
                       5.98052800E+00])),
        transport=gas_transport(geom='linear',
                                diam=3.621,
                                well_depth=97.53,
                                polar=1.76,
                                rot_relax=4.0),
        note='121286')

species(name='HO2',
        atoms='H:1 O:2',
        thermo=(NASA([200.00, 1000.00],
                     [ 4.30179801E+00, -4.74912051E-03,  2.11582891E-05,
                      -2.42763894E-08,  9.29225124E-12,  2.94808040E+02,
                       3.71666245E+00]),
                NASA([1000.00, 3500.00],
                     [ 4.01721090E+00,  2.23982013E-03, -6.33658150E-07,
                       1.14246370E-10, -1.07908535E-14,  1.11856713E+02,
                       3.78510215E+00])),
        transport=gas_transport(geom='nonlinear',
                                diam=3.458,
                                well_depth=107.4,
                                rot_relax=1.0),
        note='L5/89')

species(name='H2O2',
        atoms='H:2 O:2',
        thermo=(NASA([300.00, 1000.00],
                     [ 3.38875400E+00,  6.56922600E-03, -1.48501300E-07,
                      -4.62580600E-09,  2.47151500E-12, -1.76631500E+04,
                       6.78536300E+00]),
                NASA([1000.00, 5000.00],
                     [ 4.57316700E+00,  4.33613600E-03, -1.47468900E-06,
                       2.34890400E-10, -1.43165400E-14, -1.80069600E+04,
                       5.01137000E-01])),
        transport=gas_transport(geom='nonlinear',
                                diam=3.458,
                                well_depth=107.4,
                                rot_relax=3.8),
        note='120186')

species(name='CO',
        atoms='C:1 O:1',
        thermo=(NASA([300.00, 1429.00],
                     [ 3.19036352E+00,  8.94419972E-04, -3.24927563E-08,
                      -1.04599967E-10,  2.41965693E-14, -1.42869054E+04,
                       5.33277914E+00]),
                NASA([1429.00, 5000.00],
                     [ 3.11216890E+00,  1.15948283E-03, -3.38480362E-07,
                       4.41403098E-11, -2.12862228E-15, -1.42718539E+04,
                       5.71725177E+00])),
        transport=gas_transport(geom='linear',
                                diam=3.65,
                                well_depth=98.1,
                                polar=1.95,
                                rot_relax=1.8),
        note='29/11/04')

species(name='CO2',
        atoms='C:1 O:2',
        thermo=(NASA([300.00, 1380.00],
                     [ 2.57930490E+00,  8.24684987E-03, -6.42716047E-06,
                       2.54637024E-09, -4.12030443E-13, -4.84162830E+04,
                       8.81141041E+00]),
                NASA([1380.00, 5000.00],
                     [ 5.18953018E+00,  2.06006476E-03, -7.33575324E-07,
                       1.17004374E-10, -6.91729215E-15, -4.93178953E+04,
                      -5.18289303E+00])),
        transport=gas_transport(geom='linear',
                                diam=3.763,
                                well_depth=244.0,
                                polar=2.65,
                                rot_relax=2.1),
        note='29/11/04')

species(name='CH2O',
        atoms='C:1 H:2 O:1',
        thermo=(NASA([300.00, 1486.00],
                     [ 3.00754197E+00,  3.04729496E-03,  5.25109246E-06,
                      -5.12019281E-09,  1.27133795E-12, -1.41188397E+04,
                       8.10120233E+00]),
                NASA([1486.00, 5000.00],
                     [ 4.02068394E+00,  5.09903417E-03, -1.76430480E-06,
                       2.76025879E-10, -1.60998042E-14, -1.49287258E+04,
                       1.06525547E+00])),
        transport=gas_transport(geom='nonlinear',
                                diam=3.59,
                                well_depth=498.0,
                                rot_relax=2.0),
        note='6/29/04RUSCI')

species(name='HCO',
        atoms='C:1 H:1 O:1',
        thermo=(NASA([300.00, 1690.00],
                     [ 3.81049965E+00,  8.13269825E-04,  3.13164701E-06,
                      -2.39478268E-09,  5.06894554E-13,  4.03859901E+03,
                       4.94843165E+00]),
                NASA([1690.00, 5000.00],
                     [ 3.44148164E+00,  3.52157719E-03, -1.24136118E-06,
                       1.97328644E-10, -1.16538616E-14,  3.97409684E+03,
                       6.24593456E+00])),
        transport=gas_transport(geom='nonlinear',
                                diam=3.59,
                                well_depth=498.0),
        note='29/11/04')

species(name='HO2CHO',
        atoms='C:1 H:2 O:3',
        thermo=(NASA([300.00, 1378.00],
                     [ 2.42464726E+00,  2.19706380E-02, -1.68705546E-05,
                       6.25612194E-09, -9.11645843E-13, -3.54828006E+04,
                       1.75027796E+01]),
                NASA([1378.00, 5000.00],
                     [ 9.87503878E+00,  4.64663708E-03, -1.67230522E-06,
                       2.68624413E-10, -1.59595232E-14, -3.80502496E+04,
                      -2.24939155E+01])),
        transport=gas_transport(geom='nonlinear',
                                diam=3.97,
                                well_depth=436.0,
                                rot_relax=2.0),
        note='6/26/95THERM')

species(name='O2CHO',
        atoms='C:1 H:1 O:3',
        thermo=(NASA([300.00, 1368.00],
                     [ 3.96059309E+00,  1.06002279E-02, -5.25713351E-06,
                       1.01716726E-09, -2.87487602E-14, -1.73599383E+04,
                       1.17807483E+01]),
                NASA([1368.00, 5000.00],
                     [ 7.24075139E+00,  4.63312951E-03, -1.63693995E-06,
                       2.59706693E-10, -1.52964699E-14, -1.87027618E+04,
                      -6.49547212E+00])),
        transport=gas_transport(geom='nonlinear',
                                diam=3.97,
                                well_depth=436.0,
                                rot_relax=2.0),
        note='6/26/95THERM')

species(name='HOCHO',
        atoms='C:1 H:2 O:2',
        thermo=(NASA([300.00, 1419.00],
                     [ 1.28069021E+00,  1.52887758E-02, -5.64150476E-06,
                      -1.22968799E-09,  8.14273233E-13, -4.64347524E+04,
                       1.83142081E+01]),
                NASA([1419.00, 5000.00],
                     [ 7.67134440E+00,  4.43426373E-03, -1.60867436E-06,
                       2.59770020E-10, -1.54899704E-14, -4.89708660E+04,
                      -1.73024418E+01])),
        transport=gas_transport(geom='nonlinear',
                                diam=3.97,
                                well_depth=436.0,
                                rot_relax=2.0),
        note='9/27/5THERM')

species(name='OCHO',
        atoms='C:1 H:1 O:2',
        thermo=(NASA([300.00, 1412.00],
                     [ 1.42991854E+00,  1.22803284E-02, -5.28461096E-06,
                      -3.73026551E-10,  5.07953571E-13, -1.62042814E+04,
                       1.80411779E+01]),
                NASA([1412.00, 5000.00],
                     [ 6.49815560E+00,  3.22319012E-03, -1.17099595E-06,
                       1.89272918E-10, -1.12937000E-14, -1.81679042E+04,
                      -1.00412613E+01])),
        transport=gas_transport(geom='nonlinear',
                                diam=3.59,
                                well_depth=498.0,
                                rot_relax=2.0),
        note='9/27/5THERM')

species(name='HOCH2O',
        atoms='C:1 H:3 O:2',
        thermo=(NASA([300.00, 1452.00],
                     [ 4.11183145E+00,  7.53850697E-03,  3.77337370E-06,
                      -5.38746005E-09,  1.45615887E-12, -2.28023001E+04,
                       7.46807254E+00]),
                NASA([1452.00, 5000.00],
                     [ 6.39521515E+00,  7.43673043E-03, -2.50422354E-06,
                       3.84879712E-10, -2.21778689E-14, -2.41108840E+04,
                      -6.63865583E+00])),
        transport=gas_transport(geom='nonlinear',
                                diam=4.41,
                                well_depth=470.6,
                                rot_relax=1.5),
        note='2/16/99THERM')

species(name='CH3OH',
        atoms='C:1 H:4 O:1',
        thermo=(NASA([300.00, 1985.00],
                     [ 1.82176844E+00,  1.23326420E-02, -2.73742177E-06,
                      -1.07387318E-09,  4.23644837E-13, -2.52222207E+04,
                       1.48104300E+01]),
                NASA([1985.00, 5000.00],
                     [ 3.92867513E+00,  9.81626074E-03, -3.40615476E-06,
                       5.35510197E-10, -3.13776029E-14, -2.61454175E+04,
                       2.69464483E+00])),
        transport=gas_transport(geom='nonlinear',
                                diam=3.626,
                                well_depth=481.8,
                                rot_relax=1.0),
        note='2/25/4THERM')

species(name='CH2OH',
        atoms='C:1 H:3 O:1',
        thermo=(NASA([300.00, 1399.00],
                     [ 3.05674228E+00,  1.19335634E-02, -8.72501303E-06,
                       3.82781054E-09, -7.22887951E-13, -2.83140190E+03,
                       8.98878133E+00]),
                NASA([1399.00, 5000.00],
                     [ 5.41875913E+00,  5.66185244E-03, -1.87471136E-06,
                       2.84441938E-10, -1.62299798E-14, -3.61475540E+03,
                      -3.49277963E+00])),
        transport=gas_transport(geom='nonlinear',
                                diam=3.69,
                                well_depth=417.0,
                                dipole=1.7,
                                rot_relax=2.0),
        note='2/25/4THERM')

species(name='CH3O',
        atoms='C:1 H:3 O:1',