"""

 ===== gasoline 5-components surrogate reduced mechanism 2.0 (#190128a) =====
       with ethanol and ETBE

 Fuel: nC7H16(n-heptane)
       iC8H18(isooctane, 2,2,4-trimethylpentane)
       C6H5CH3(toluene)
       cC7H14(methylcyclohexane)
       eC8H16(isooctene, 2,4,4-trimethyl-1-pentene)
       C2H5OH(ethanol)
       ETBE(ethyl-t-butylether)

-------------------------------------------------------------------------------

 ===== gasoline 5-components surrogate reduced mechanism 2.0 (#190128a) =====
       with ethanol and ETBE

 Fuel: nC7H16(n-heptane)
       iC8H18(isooctane, 2,2,4-trimethylpentane)
       C6H5CH3(toluene)
       cC7H14(methylcyclohexane)
       eC8H16(isooctene, 2,4,4-trimethyl-1-pentene)
       C2H5OH(ethanol)
       ETBE(ethyl-t-butylether)

"""

units(length='cm', time='s', quantity='mol', act_energy='cal/mol')

ideal_gas(name='gas',
          elements="H O C N",
          species="""nC7H16          nC7H15          nC7H15OO
                     nC7H14OOH       nHOOC7H14OO     nC7KET
                     nC5H9O          nC5H11          nC5H10
                     nC5H9           nC7H15O         nC7H15OOH
                     iC8H18          iC8H17          iC8H17OO
                     iC8H16OOH       iHOOC8H16OO     iC8KET
                     iC7H13O         iC7H14          iC7H13
                     iC4H9           iC4H8           iC4H7
                     iC8H17O         iC8H17OOH       C6H5CH3
                     C6H5CH2         C6H5CH2OO       C6H5CH2O
                     C6H5CH2OOH      C6H5CHO         C6H5CO
                     C6H6            C6H5            CY13PD
                     CY13PD5J        C3H3            cC7H14
                     cC7H13          cC7H13OO        cC7H12OOH
                     cHOOC7H12OO     cC7KET          cC5H9O
                     cC5H9           cC5H8           cC7H13O
                     cC7H13OOH       eC8H16          eC8H15
                     eC8H15OO        eC8H14OOH       eHOOC8H14OO
                     eC8KET          eC6H11O         eC8H16OOH
                     eC8H16Oa        eC8H16OH        eHOC8H16OO
                     eHOC8H15OOH     eHOOHOC8H15OO   eC8KETOH
                     eC8H16Ob        eC8H16O2        eC8H15O3
                     eC4H9           eC4H8           eC4H7
                     eC4H6O          eC8H15O         C2H5OH
                     sC2H4OH         CH2OH           ETBE
                     ETBEr           ETBErOO         ETBEqOOH
                     HOOETBEqOO      ETBEKET         aC4H9
                     aC4H8O          aC4H7O2         aC4H8
                     aC4H7           aC5H11O         ETBErO
                     COOM2OC2H5      COOHM2OCHCH3    COOHM2OCHOOCH3
                     COOM2OCHOOHCH3  COOHM2OCOCH3    N2
                     O               O2              H
                     OH              HO2             H2
                     H2O             H2O2            CO
                     CO2             CH              HCO
                     CH2             CH2O            CH3
                     CH3O            CH3OO           CH4
                     CH3OOH          HCCO            C2H2
                     CH2CO           C2H3            CH2CHO
                     CH3CO           CH3CO2          CH3C(O)OO
                     C2H4            CH3CHO          CH3C(O)OOH
                     C2H5            pC2H4OH         C2H5O
                     C2H5OO          C2H6            C2H5OOH
                     aC3H5           C3H6            iC3H7""",
          reactions='all',
          transport='Mix',
          initial_state=state(temperature=300.0, pressure=OneAtm))

#-------------------------------------------------------------------------------
# Species data
#-------------------------------------------------------------------------------

species(name='nC7H16',
        atoms='C:7 H:16',
        thermo=(NASA([300.00, 1391.00],
                     [-1.26871064E+00,  8.54348955E-02, -5.25290944E-05,
                       1.62884286E-08, -2.02214778E-12, -2.56586562E+04,
                       3.53739478E+01]),
                NASA([1391.00, 5000.00],
                     [ 2.22177923E+01,  3.47632604E-02, -1.18388528E-05,
                       1.83265875E-09, -1.06109932E-13, -3.42772591E+04,
                      -9.23217457E+01])),
        transport=gas_transport(geom='nonlinear',
                                diam=6.094,
                                well_depth=415.4,
                                rot_relax=1.0),
        note='thgen')

species(name='nC7H15',
        atoms='C:7 H:15',
        thermo=(NASA([300.00, 1382.00],
                     [-3.88848544E-02,  7.56801544E-02, -4.07609055E-05,
                       9.33601461E-09, -4.94482163E-13, -2.35589863E+03,
                       3.37383486E+01]),
                NASA([1382.00, 5000.00],
                     [ 2.16358383E+01,  3.23340841E-02, -1.09280566E-05,
                       1.68368616E-09, -9.71844623E-14, -1.05866176E+04,
                      -8.52122680E+01])),
        transport=gas_transport(geom='nonlinear',
                                diam=6.094,
                                well_depth=415.4,
                                rot_relax=1.0),
        note='thgen')

species(name='nC7H15OO',
        atoms='C:7 H:15 O:2',
        thermo=(NASA([300.00, 1390.00],
                     [ 3.59006547E-01,  9.42245153E-02, -6.66804487E-05,
                       2.54724302E-08, -4.13086673E-12, -2.03728288E+04,
                       3.28613586E+01]),
                NASA([1390.00, 5000.00],
                     [ 2.60523050E+01,  3.43839001E-02, -1.18715005E-05,
                       1.85452176E-09, -1.08053193E-13, -2.94761134E+04,
                      -1.05463689E+02])),
        transport=gas_transport(geom='nonlinear',
                                diam=6.238,
                                well_depth=506.2,
                                rot_relax=1.0),
        note='thgen')

species(name='nC7H14OOH',
        atoms='C:7 H:15 O:2',
        thermo=(NASA([300.00, 1389.00],
                     [ 8.68010527E-01,  9.24071780E-02, -6.23385915E-05,
                       2.16105189E-08, -3.07642818E-12, -1.53160279E+04,
                       3.24663802E+01]),
                NASA([1389.00, 5000.00],
                     [ 2.74573337E+01,  3.26265036E-02, -1.12386517E-05,
                       1.75329980E-09, -1.02071273E-13, -2.48239746E+04,
                      -1.11231599E+02])),
        transport=gas_transport(geom='nonlinear',
                                diam=6.238,
                                well_depth=506.2,
                                rot_relax=1.0),
        note='thgen')

species(name='nHOOC7H14OO',
        atoms='C:7 H:15 O:4',
        thermo=(NASA([300.00, 1390.00],
                     [ 1.41185977E+00,  1.10703712E-01, -8.70872996E-05,
                       3.63452156E-08, -6.27852573E-12, -3.33720367E+04,
                       3.07923596E+01]),
                NASA([1390.00, 5000.00],
                     [ 3.28360162E+01,  3.32763432E-02, -1.15831469E-05,
                       1.81955309E-09, -1.06432285E-13, -4.40287923E+04,
                      -1.36795390E+02])),
        transport=gas_transport(geom='nonlinear',
                                diam=6.376,
                                well_depth=596.0,
                                rot_relax=1.0),
        note='thgen')

species(name='nC7KET',
        atoms='C:7 H:14 O:3',
        thermo=(NASA([300.00, 1386.00],
                     [ 2.32186256E+00,  9.45240193E-02, -6.99211946E-05,
                       2.79874447E-08, -4.74465002E-12, -5.27085951E+04,
                       2.45959611E+01]),
                NASA([1386.00, 5000.00],
                     [ 2.86566981E+01,  3.21565793E-02, -1.11959188E-05,
                       1.75889497E-09, -1.02888014E-13, -6.19744506E+04,
                      -1.16883589E+02])),
        transport=gas_transport(geom='nonlinear',
                                diam=6.265,
                                well_depth=556.3,
                                rot_relax=1.0),
        note='thgen')

species(name='nC5H9O',
        atoms='C:5 H:9 O:1',
        thermo=(NASA([300.00, 1379.00],
                     [ 2.36413323E+00,  4.95786327E-02, -2.90721987E-05,
                       8.29294303E-09, -9.03229011E-13, -1.14543903E+04,
                       1.96153510E+01]),
                NASA([1379.00, 5000.00],
                     [ 1.64012943E+01,  2.04003752E-02, -6.93873682E-06,
                       1.07367226E-09, -6.21614279E-14, -1.67278682E+04,
                      -5.71188765E+01])),
        transport=gas_transport(geom='nonlinear',
                                diam=5.605,
                                well_depth=425.1,
                                rot_relax=1.0),
        note='thgen')

species(name='nC5H11',
        atoms='C:5 H:11',
        thermo=(NASA([300.00, 1390.00],
                     [ 5.79609854E-02,  5.60823625E-02, -3.31785211E-05,
                       9.79021087E-09, -1.14223950E-12,  4.71440753E+03,
                       2.86918308E+01]),
                NASA([1390.00, 5000.00],
                     [ 1.52896647E+01,  2.39755267E-02, -8.18341222E-06,
                       1.26861432E-09, -7.35224954E-14, -9.72919304E+02,
                      -5.44277267E+01])),
        transport=gas_transport(geom='nonlinear',
                                diam=5.507,
                                well_depth=378.3,
                                rot_relax=1.0),
        note='thgen')

species(name='nC5H10',
        atoms='C:5 H:10',
        thermo=(NASA([300.00, 1392.00],
                     [-1.07237458E+00,  5.74872482E-02, -3.75589723E-05,
                       1.28055098E-08, -1.81083209E-12, -4.46482377E+03,
                       3.23144603E+01]),
                NASA([1392.00, 5000.00],
                     [ 1.45837757E+01,  2.24057409E-02, -7.63231344E-06,
                       1.18163580E-09, -6.84206955E-14, -1.00871422E+04,
                      -5.23577225E+01])),
        transport=gas_transport(geom='nonlinear',
                                diam=5.395,
                                well_depth=378.3,
                                rot_relax=1.0),
        note='thgen')

species(name='nC5H9',
        atoms='C:5 H:9',
        thermo=(NASA([300.00, 1388.00],
                     [-1.04797696E+00,  5.41768083E-02, -3.45284353E-05,
                       1.11684416E-08, -1.47643393E-12,  1.25116524E+04,
                       3.11242264E+01]),
                NASA([1388.00, 5000.00],
                     [ 1.45041351E+01,  2.05083694E-02, -7.10654706E-06,
                       1.11295524E-09, -6.49627735E-14,  6.79087910E+03,
                      -5.34346369E+01])),
        transport=gas_transport(geom='nonlinear',
                                diam=5.395,
                                well_depth=378.3,
                                rot_relax=1.0),
        note='thgen')

species(name='nC7H15O',
        atoms='C:7 H:15 O:1',
        thermo=(NASA([300.00, 1395.00],
                     [-1.08852878E+00,  9.23114953E-02, -6.44357297E-05,
                       2.36757686E-08, -3.61001227E-12, -1.99930305E+04,
                       3.70751744E+01]),
                NASA([1395.00, 5000.00],
                     [ 2.43050592E+01,  3.31299633E-02, -1.13048045E-05,
                       1.75223806E-09, -1.01542653E-13, -2.88617678E+04,
                      -9.94127348E+01])),
        transport=gas_transport(geom='nonlinear',
                                diam=6.156,
                                well_depth=488.4,
                                rot_relax=1.0),
        note='thgen')

species(name='nC7H15OOH',
        atoms='C:7 H:16 O:2',
        thermo=(NASA([300.00, 1390.00],
                     [-5.93636262E-01,  1.02847108E-01, -7.42877994E-05,
                       2.83328117E-08, -4.51137547E-12, -3.85781122E+04,
                       3.59212486E+01]),
                NASA([1390.00, 5000.00],
                     [ 2.85696040E+01,  3.45362690E-02, -1.19635215E-05,
                       1.87319578E-09, -1.09321273E-13, -4.87912635E+04,
                      -1.20812558E+02])),
        transport=gas_transport(geom='nonlinear',
                                diam=6.238,
                                well_depth=506.2,
                                rot_relax=1.0),
        note='thgen')

species(name='iC8H18',
        atoms='C:8 H:18',
        thermo=(NASA([300.00, 1397.00],
                     [-4.20184373E+00,  1.11525135E-01, -7.94018605E-05,
                       2.94327964E-08, -4.47928170E-12, -3.19113977E+04,
                       4.48981238E+01]),
                NASA([1397.00, 5000.00],
                     [ 2.70920030E+01,  3.79052142E-02, -1.29375691E-05,
                       2.00580387E-09, -1.16261109E-13, -4.27201269E+04,
                      -1.22972430E+02])),
        transport=gas_transport(geom='nonlinear',
                                diam=6.274,
                                well_depth=442.4,
                                rot_relax=1.0),
        note='thgen')

species(name='iC8H17',
        atoms='C:8 H:17',
        thermo=(NASA([300.00, 1393.00],
                     [-3.08982602E+00,  1.02313728E-01, -6.84786443E-05,
                       2.30138816E-08, -3.06907219E-12, -8.59119871E+03,
                       4.31119876E+01]),
                NASA([1393.00, 5000.00],
                     [ 2.64552622E+01,  3.55440069E-02, -1.20528460E-05,
                       1.86101603E-09, -1.07579175E-13, -1.90011197E+04,
                      -1.16235434E+02])),
        transport=gas_transport(geom='nonlinear',
                                diam=6.274,
                                well_depth=442.4,
                                rot_relax=1.0),
        note='thgen')

species(name='iC8H17OO',
        atoms='C:8 H:17 O:2',
        thermo=(NASA([300.00, 1394.00],
                     [-3.06443818E+00,  1.22613369E-01, -9.71774181E-05,
                       4.08857690E-08, -7.08508839E-12, -2.65537797E+04,
                       4.39441843E+01]),
                NASA([1394.00, 5000.00],
                     [ 3.09355421E+01,  3.74105002E-02, -1.29073110E-05,
                       2.01549577E-09, -1.17402236E-13, -3.78977875E+04,
                      -1.36798535E+02])),
        transport=gas_transport(geom='nonlinear',
                                diam=6.41,
                                well_depth=530.7,
                                rot_relax=1.0),
        note='thgen')

species(name='iC8H16OOH',
        atoms='C:8 H:17 O:2',
        thermo=(NASA([300.00, 1395.00],
                     [-3.22291546E+00,  1.26638844E-01, -1.02432626E-04,
                       4.32601240E-08, -7.45097857E-12, -2.01505706E+04,
                       4.54684584E+01]),
                NASA([1395.00, 5000.00],
                     [ 3.29642834E+01,  3.54528218E-02, -1.22763166E-05,
                       1.92179615E-09, -1.12146066E-13, -3.21060047E+04,
                      -1.46610031E+02])),
        transport=gas_transport(geom='nonlinear',
                                diam=6.41,
                                well_depth=530.7,
                                rot_relax=1.0),
        note='thgen')

species(name='iHOOC8H16OO',
        atoms='C:8 H:17 O:4',
        thermo=(NASA([300.00, 1393.00],
                     [-1.32886825E+00,  1.32867168E-01, -1.07401821E-04,
                       4.53903634E-08, -7.84223845E-12, -3.73590684E+04,
                       4.04443512E+01]),
                NASA([1393.00, 5000.00],
                     [ 3.68921902E+01,  3.70313467E-02, -1.28759800E-05,
                       2.02124832E-09, -1.18176812E-13, -5.00657935E+04,
                      -1.62652799E+02])),
        transport=gas_transport(geom='nonlinear',
                                diam=6.565,
                                well_depth=616.7,
                                rot_relax=1.0),
        note='thgen')

species(name='iC8KET',
        atoms='C:8 H:16 O:3',
        thermo=(NASA([300.00, 1393.00],
                     [-3.69054288E+00,  1.27292525E-01, -1.00891530E-04,
                       4.14152491E-08, -6.93785042E-12, -5.52794020E+04,
                       5.03601636E+01]),
                NASA([1393.00, 5000.00],
                     [ 3.37013249E+01,  3.51404946E-02, -1.22403555E-05,
                       1.92384697E-09, -1.12581529E-13, -6.78193788E+04,
                      -1.48813885E+02])),
        transport=gas_transport(geom='nonlinear',
                                diam=6.461,
                                well_depth=578.1,
                                rot_relax=1.0),
        note='thgen')

species(name='iC7H13O',
        atoms='C:7 H:13 O:1',
        thermo=(NASA([300.00, 1394.00],
                     [-1.80946874E+00,  9.01521048E-02, -6.57659227E-05,
                       2.48425015E-08, -3.84914862E-12, -2.15441753E+04,
                       3.53937659E+01]),
                NASA([1394.00, 5000.00],
                     [ 2.42679982E+01,  2.86333840E-02, -9.88040093E-06,
                       1.54317611E-09, -8.99095196E-14, -3.05478683E+04,
                      -1.04458208E+02])),
        transport=gas_transport(geom='nonlinear',
                                diam=6.07,
                                well_depth=475.3,
                                rot_relax=1.0),
        note='thgen')

species(name='iC7H14',
        atoms='C:7 H:14',
        thermo=(NASA([300.00, 1395.00],
                     [-3.30938880E+00,  9.05113458E-02, -6.47606480E-05,
                       2.38759306E-08, -3.57718690E-12, -1.35517265E+04,
                       4.08164660E+01]),
                NASA([1395.00, 5000.00],
                     [ 2.24912357E+01,  2.96685986E-02, -1.00455975E-05,
                       1.54950613E-09, -8.95071232E-14, -2.24019669E+04,
                      -9.74583681E+01])),
        transport=gas_transport(geom='nonlinear',
                                diam=5.943,
                                well_depth=432.5,
                                rot_relax=1.0),
        note='thgen')

species(name='iC7H13',
        atoms='C:7 H:13',
        thermo=(NASA([300.00, 1396.00],
                     [-3.87510891E+00,  9.11860004E-02, -6.79894558E-05,
                       2.61194736E-08, -4.08578594E-12,  4.44229599E+03,
                       4.24657120E+01]),
                NASA([1396.00, 5000.00],
                     [ 2.26058410E+01,  2.77383394E-02, -9.53221699E-06,
                       1.48480972E-09, -8.63512957E-14, -4.56407218E+03,
                      -9.91382375E+01])),
        transport=gas_transport(geom='nonlinear',
                                diam=5.948,
                                well_depth=421.9,
                                rot_relax=1.0),
        note='thgen')

species(name='iC4H9',
        atoms='C:4 H:9',
        thermo=(NASA([300.00, 1371.00],
                     [ 3.00651244E+00,  2.87404049E-02, -2.86301425E-06,
                      -5.92506428E-09,  1.92085423E-12,  3.85126136E+03,
                       1.18650543E+01]),
                NASA([1371.00, 5000.00],
                     [ 1.06256766E+01,  2.10524192E-02, -7.24699414E-06,
                       1.12975765E-09, -6.57275211E-14,  8.98003085E+01,
                      -3.28154286E+01])),
        transport=gas_transport(geom='nonlinear',
                                diam=5.12,
                                well_depth=362.0,
                                rot_relax=1.0),
        note='thgen')

species(name='iC4H8',
        atoms='C:4 H:8',
        thermo=(NASA([300.00, 1388.00],
                     [ 9.39096232E-01,  3.90507649E-02, -2.16375684E-05,
                       5.86955550E-09, -6.13931254E-13, -3.74834503E+03,
                       1.91392713E+01]),
                NASA([1388.00, 5000.00],
                     [ 1.12250420E+01,  1.81815694E-02, -6.20445208E-06,
                       9.61623502E-10, -5.57203448E-14, -7.69990589E+03,
                      -3.73290465E+01])),
        transport=gas_transport(geom='nonlinear',
                                diam=5.038,
                                well_depth=361.9,
                                rot_relax=1.0),
        note='thgen')

species(name='iC4H7',
        atoms='C:4 H:7',
        thermo=(NASA([300.00, 1386.00],
                     [ 2.33005612E-01,  4.23571985E-02, -2.93968519E-05,
                       1.09284827E-08, -1.73005596E-12,  1.45421013E+04,
                       2.22900171E+01]),
                NASA([1386.00, 5000.00],
                     [ 1.20755413E+01,  1.53838035E-02, -5.34471115E-06,
                       8.38457076E-10, -4.89970916E-14,  1.02789716E+04,
                      -4.16938641E+01])),
        transport=gas_transport(geom='nonlinear',
                                diam=5.038,
                                well_depth=361.9,
                                rot_relax=1.0),
        note='thgen')

species(name='iC8H17O',
        atoms='C:8 H:17 O:1',
        thermo=(NASA([300.00, 1400.00],
                     [-3.96943499E+00,  1.18162148E-01, -9.09286549E-05,
                       3.65727157E-08, -6.01087592E-12, -2.62535880E+04,
                       4.56667705E+01]),
                NASA([1400.00, 5000.00],
                     [ 2.92000599E+01,  3.62425322E-02, -1.23912392E-05,
                       1.92327737E-09, -1.11564645E-13, -3.73134757E+04,
                      -1.30872815E+02])),
        transport=gas_transport(geom='nonlinear',
                                diam=6.332,
                                well_depth=513.4,
                                rot_relax=1.0),
        note='thgen')

species(name='iC8H17OOH',
        atoms='C:8 H:18 O:2',
        thermo=(NASA([300.00, 1395.00],
                     [-3.94285031E+00,  1.31014400E-01, -1.04685507E-04,
                       4.37791373E-08, -7.48600810E-12, -4.47722798E+04,
                       4.66425335E+01]),
                NASA([1395.00, 5000.00],
                     [ 3.33786590E+01,  3.76091799E-02, -1.30114163E-05,
                       2.03563516E-09, -1.18738112E-13, -5.71706588E+04,
                      -1.51690420E+02])),
        transport=gas_transport(geom='nonlinear',
                                diam=6.41,
                                well_depth=530.7,
                                rot_relax=1.0),
        note='thgen')

species(name='C6H5CH3',
        atoms='C:7 H:8',
        thermo=(NASA([300.00, 1389.00],
                     [-4.08982289E+00,  6.86477374E-02, -4.74716566E-05,
                       1.67001205E-08, -2.39578007E-12,  4.49937542E+03,
                       4.34582591E+01]),
                NASA([1389.00, 5000.00],
                     [ 1.63091542E+01,  2.25331612E-02, -7.84281827E-06,
                       1.23200630E-09, -7.20675043E-14, -2.75804095E+03,
                      -6.66759774E+01])),
        transport=gas_transport(geom='nonlinear',
                                diam=5.531,
                                well_depth=474.9,
                                rot_relax=1.0),
        note='5/19/93THERM')

species(name='C6H5CH2',
        atoms='C:7 H:7',
        thermo=(NASA([200.00, 1000.00],
                     [ 4.81115400E-01,  3.85128320E-02,  3.28614920E-05,
                      -7.69727210E-08,  3.54230680E-11,  2.33070270E+04,
                       2.35488200E+01]),
                NASA([1000.00, 6000.00],
                     [ 1.40439800E+01,  2.34938730E-02, -8.53753670E-06,
                       1.38908410E-09, -8.36144200E-14,  1.85642030E+04,
                      -5.16655890E+01])),
        transport=gas_transport(geom='nonlinear',
                                diam=5.531,
                                well_depth=474.9,
                                rot_relax=1.0),
        note='T08/90')

species(name='C6H5CH2OO',
        atoms='C:7 H:7 O:2',
        thermo=(NASA([300.00, 1389.00],
                     [-3.77863659E+00,  8.29484718E-02, -6.64288143E-05,
                       2.69504875E-08, -4.41844689E-12,  1.25603231E+04,
                       4.73269747E+01]),
                NASA([1389.00, 5000.00],
                     [ 2.18946260E+01,  2.02701494E-02, -7.14525361E-06,
                       1.13208570E-09, -6.66220534E-14,  3.93272947E+03,
                      -8.95685129E+01])),
        transport=gas_transport(geom='nonlinear',
                                diam=5.736,
                                well_depth=555.6,
                                rot_relax=1.0),
        note='3/4/94THERM')

species(name='C6H5CH2O',
        atoms='C:7 H:7 O:1',
        thermo=(NASA([300.00, 1392.00],
                     [-4.77736690E+00,  7.51049308E-02, -5.68532831E-05,
                       2.18290029E-08, -3.38134298E-12,  1.26234438E+04,
                       5.10429366E+01]),
                NASA([1392.00, 5000.00],
                     [ 1.78843033E+01,  2.09011735E-02, -7.21832713E-06,
                       1.12839851E-09, -6.57955260E-14,  4.93182818E+03,
                      -7.01304667E+01])),
        transport=gas_transport(geom='nonlinear',
                                diam=5.638,
                                well_depth=539.0,
                                rot_relax=1.0),
        note='4/14/94THERM')

species(name='C6H5CH2OOH',
        atoms='C:7 H:8 O:2',
        thermo=(NASA([300.00, 1390.00],
                     [-3.39515159E+00,  8.45306884E-02, -6.70634097E-05,
                       2.72113250E-08, -4.48289693E-12, -5.78730853E+03,
                       4.57078979E+01]),
                NASA([1390.00, 5000.00],
                     [ 2.21951256E+01,  2.19901041E-02, -7.70452728E-06,
                       1.21574282E-09, -7.13427270E-14, -1.43966742E+04,
                      -9.07483698E+01])),
        transport=gas_transport(geom='nonlinear',
                                diam=5.736,
                                well_depth=555.6,
                                rot_relax=1.0),
        note='3/4/94THERM')

species(name='C6H5CHO',
        atoms='C:7 H:6 O:1',
        thermo=(NASA([300.00, 1382.00],
                     [-2.70517666E+00,  6.46821582E-02, -4.57286415E-05,
                       1.60322213E-08, -2.23734122E-12, -6.07344750E+03,
                       4.00414090E+01]),
                NASA([1382.00, 5000.00],
                     [ 1.75038056E+01,  1.87911370E-02, -6.51897523E-06,
                       1.02244104E-09, -5.97629759E-14, -1.31835944E+04,
                      -6.88975598E+01])),
        transport=gas_transport(geom='nonlinear',
                                diam=5.627,
                                well_depth=519.4,
                                rot_relax=1.0),
        note='2/25/94THERM')

species(name='C6H5CO',
        atoms='C:7 H:5 O:1',
        thermo=(NASA([300.00, 1382.00],
                     [-1.93001550E+00,  6.18799970E-02, -4.60916515E-05,
                       1.70133701E-08, -2.49869948E-12,  1.13352170E+04,
                       3.71779131E+01]),
                NASA([1382.00, 5000.00],
                     [ 1.77196103E+01,  1.59990428E-02, -5.54532150E-06,
                       8.69582681E-10, -5.08335220E-14,  4.57408086E+03,
                      -6.82553109E+01])),
        transport=gas_transport(geom='nonlinear',
                                diam=5.627,
                                well_depth=519.4,
                                rot_relax=1.0),
        note='2/25/94THERM')

species(name='C6H6',
        atoms='C:6 H:6',
        thermo=(NASA([300.00, 1390.00],
                     [-5.18689051E+00,  6.30511006E-02, -4.82874623E-05,
                       1.89015490E-08, -3.01017276E-12,  9.09950343E+03,
                       4.50744831E+01]),
                NASA([1390.00, 5000.00],
                     [ 1.38672847E+01,  1.74152368E-02, -6.08383755E-06,
                       9.58140923E-10, -5.61503296E-14,  2.59989001E+03,
                      -5.68524653E+01])),
        transport=gas_transport(geom='nonlinear',
                                diam=5.187,
                                well_depth=452.7,
                                rot_relax=1.0),
        note='5/2/91THERM')

species(name='C6H5',
        atoms='C:6 H:5',
        thermo=(NASA([200.00, 1000.00],
                     [ 2.10306633E-01,  2.04745507E-02,  5.89743006E-05,
                      -1.01534255E-07,  4.47105660E-11,  3.95468722E+04,
                       2.52910455E+01]),
                NASA([1000.00, 6000.00],
                     [ 1.08444762E+01,  1.73212473E-02, -6.29233249E-06,
                       1.02369961E-09, -6.16216828E-14,  3.55598475E+04,
                      -3.53735134E+01])),
        transport=gas_transport(geom='nonlinear',
                                diam=5.187,
                                well_depth=452.7,
                                rot_relax=1.0),
        note='PHENYLRADT04/02')

species(name='CY13PD',
        atoms='C:5 H:6',
        thermo=(NASA([300.00, 1400.00],